# CIF file generated by openbabel 2.3.2, see http://openbabel.sf.net
data_I
_chemical_name_common ''
_cell_length_a 25.832
_cell_length_b 25.832
_cell_length_c 25.832
_cell_angle_alpha 90
_cell_angle_beta 90
_cell_angle_gamma 90
_space_group_name_H-M_alt 'P 1'
_space_group_name_Hall 'P 1'
loop_
    _symmetry_equiv_pos_as_xyz
    'x,y,z'
loop_
    _atom_site_type_symbol
    _atom_site_label
    _atom_site_Cartn_x
    _atom_site_Cartn_y
    _atom_site_Cartn_z
     Zn  Zn2    18.25341   20.49459    5.33741
     Zn  Zn7    20.49459   18.25341    5.33741
     Zn  Zn12    20.49459   20.49459    7.57859
     Zn  Zn27    18.25341   18.25341    7.57859
      O   O2    19.37400   19.37400    6.45800
      O  O10    18.55073   20.19727    3.46149
      O  O15    22.37051   18.55073    5.63473
      O  O20    20.19727   22.37051    7.28127
      O  O35    18.55073   18.55073    9.45451
      O  O40    22.37051   20.19727    7.28127
      O  O42    20.19727   16.37749    5.63473
      O  O60    20.19727   20.19727    9.45451
      O  O62    16.37749   18.55073    7.28127
      O  O67    18.55073   22.37051    5.63473
      O  O81    20.19727   18.55073    3.46149
      O  O85    16.37749   20.19727    5.63473
      C   C2    19.37400   19.37400    2.87510
      C   C7    22.95690   19.37400    6.45800
      C  C12    19.37400   22.95690    6.45800
      C  C27    19.37400   19.37400   10.04090
      C  C42    15.79110   19.37400    6.45800
      C  C50    19.37400   19.37400    1.38976
      C  C55    24.44224   19.37400    6.45800
      C  C60    19.37400   24.44224    6.45800
      C  C75    19.37400   19.37400   11.52624
      C  C90    14.30576   19.37400    6.45800
      C  C96    11.52624   19.37400    6.45800
      C  C98    18.52413   20.22387    0.69488
      C  C103    25.13712   18.52413    5.60813
      C  C108    20.22387   25.13712    7.30787
      C  C123    18.52413   18.52413   12.22112
      C  C128    25.13712   20.22387    7.30787
      C  C148    20.22387   20.22387   12.22112
      C  C150    13.61088   18.52413    7.30787
      C  C155    18.52413   25.13712    5.60813
      C  C168    12.22112   20.22387    5.60813
      C  C169    20.22387   18.52413    0.69488
      C  C173    13.61088   20.22387    5.60813
      C  C191    12.22112   18.52413    7.30787
      H   H2    17.95582   20.79218    1.15727
      H   H7    24.67473   17.95582    5.03982
      H  H12    20.79218   24.67473    7.87618
      H  H27    17.95582   17.95582   11.75873
      H  H32    24.67473   20.79218    7.87618
      H  H52    20.79218   20.79218   11.75873
      H  H54    14.07327   17.95582    7.87618
      H  H59    17.95582   24.67473    5.03982
      H  H72    11.75873   20.79218    5.03982
      H  H73    20.79218   17.95582    1.15727
      H  H77    14.07327   20.79218    5.03982
      H  H95    11.75873   17.95582    7.87618
