data_RUBTAK01_SL_PM
_symmetry_space_group_name_H-M    'P1'
_cell_length_a    29.634800
_cell_length_b    29.634800
_cell_length_c    29.634800
_cell_angle_alpha    60.000000
_cell_angle_beta    60.000000
_cell_angle_gamma    60.000000
_symmetry_Int_Tables_number 1

loop_
_symmetry_equiv_pos_as_xyz
'x,y,z'

loop_
_atom_site_label
_atom_site_type_symbol
_atom_site_fract_x
_atom_site_fract_y
_atom_site_fract_z
_atom_site_charge
C1    C    0.276150    0.038750    0.223850    0.047000
O1    O    0.363450    0.462250    0.136550    -0.625000
H1    H    0.295385    0.072065    0.204615    0.023000
C2    C    0.038750    0.276150    0.461250    0.098000
O2    O    0.462250    0.363450    0.037750    -0.630000
H2    H    0.072065    0.295385    0.427935    0.018000
C3    C    0.223850    0.461250    0.276150    0.104000
O3    O    0.136550    0.037750    0.363450    -0.676000
H3    H    0.204615    0.427935    0.295385    0.021000
C4    C    0.461250    0.223850    0.038750    0.095000
O4    O    0.037750    0.136550    0.462250    -0.642000
H4    H    0.427935    0.204615    0.072065    0.018000
C5    C    0.223850    0.276150    0.038750    0.048000
O5    O    0.136550    0.363450    0.462250    -0.624000
H5    H    0.204615    0.295385    0.072065    0.024000
C6    C    0.461250    0.038750    0.276150    0.099000
O6    O    0.037750    0.462250    0.363450    -0.629000
H6    H    0.427935    0.072065    0.295385    0.019000
C7    C    0.276150    0.223850    0.461250    0.104000
O7    O    0.363450    0.136550    0.037750    -0.676000
H7    H    0.295385    0.204615    0.427935    0.021000
C8    C    0.038750    0.461250    0.223850    0.095000
O8    O    0.462250    0.037750    0.136550    -0.642000
H8    H    0.072065    0.427935    0.204615    0.018000
C9    C    0.038750    0.223850    0.276150    0.048000
O9    O    0.462250    0.136550    0.363450    -0.624000
H9    H    0.072065    0.204615    0.295385    0.024000
C10    C    0.276150    0.461250    0.038750    0.099000
O10    O    0.363450    0.037750    0.462250    -0.629000
H10    H    0.295385    0.427935    0.072065    0.019000
C11    C    0.461250    0.276150    0.223850    0.104000
O11    O    0.037750    0.363450    0.136550    -0.676000
H11    H    0.427935    0.295385    0.204615    0.021000
C12    C    0.223850    0.038750    0.461250    0.095000
O12    O    0.136550    0.462250    0.037750    -0.642000
H12    H    0.204615    0.072065    0.427935    0.018000
C13    C    0.038750    0.276150    0.223850    0.048000
O13    O    0.462250    0.363450    0.136550    -0.624000
H13    H    0.072065    0.295385    0.204615    0.024000
C14    C    0.276150    0.038750    0.461250    0.099000
O14    O    0.363450    0.462250    0.037750    -0.629000
H14    H    0.295385    0.072065    0.427935    0.019000
C15    C    0.461250    0.223850    0.276150    0.104000
O15    O    0.037750    0.136550    0.363450    -0.676000
H15    H    0.427935    0.204615    0.295385    0.021000
C16    C    0.223850    0.461250    0.038750    0.095000
O16    O    0.136550    0.037750    0.462250    -0.642000
H16    H    0.204615    0.427935    0.072065    0.018000
C17    C    0.276150    0.223850    0.038750    0.048000
O17    O    0.363450    0.136550    0.462250    -0.624000
H17    H    0.295385    0.204615    0.072065    0.024000
C18    C    0.038750    0.461250    0.276150    0.099000
O18    O    0.462250    0.037750    0.363450    -0.629000
H18    H    0.072065    0.427935    0.295385    0.019000
C19    C    0.223850    0.276150    0.461250    0.104000
O19    O    0.136550    0.363450    0.037750    -0.676000
H19    H    0.204615    0.295385    0.427935    0.021000
C20    C    0.461250    0.038750    0.223850    0.095000
O20    O    0.037750    0.462250    0.136550    -0.642000
H20    H    0.427935    0.072065    0.204615    0.018000
C21    C    0.223850    0.038750    0.276150    0.048000
O21    O    0.136550    0.462250    0.363450    -0.624000
H21    H    0.204615    0.072065    0.295385    0.024000
C22    C    0.461250    0.276150    0.038750    0.099000
O22    O    0.037750    0.363450    0.462250    -0.629000
H22    H    0.427935    0.295385    0.072065    0.019000
C23    C    0.276150    0.461250    0.223850    0.104000
O23    O    0.363450    0.037750    0.136550    -0.676000
H23    H    0.295385    0.427935    0.204615    0.021000
C24    C    0.038750    0.223850    0.461250    0.095000
O24    O    0.462250    0.136550    0.037750    -0.642000
H24    H    0.072065    0.204615    0.427935    0.018000
Zr1    Zr    0.438150    0.438150    0.061850    3.157000
Zr2    Zr    0.061850    0.061850    0.438150    3.153000
Zr3    Zr    0.061850    0.438150    0.438150    3.157000
Zr4    Zr    0.438150    0.061850    0.061850    3.153000
Zr5    Zr    0.438150    0.061850    0.438150    3.157000
Zr6    Zr    0.061850    0.438150    0.061850    3.153000
C25    C    0.343700    0.000000    0.156300    0.502000
C26    C    0.296700    0.000000    0.203300    -0.262000
C27    C    0.000000    0.343700    0.000000    0.454000
C28    C    0.000000    0.296700    0.000000    -0.303000
C29    C    0.156300    0.000000    0.343700    0.502000
C30    C    0.203300    0.000000    0.296700    -0.262000
C31    C    0.000000    0.156300    0.000000    0.478000
C32    C    0.000000    0.203300    0.000000    -0.303000
C33    C    0.156300    0.343700    0.000000    0.502000
C34    C    0.203300    0.296700    0.000000    -0.262000
C35    C    0.000000    0.000000    0.343700    0.454000
C36    C    0.000000    0.000000    0.296700    -0.303000
C37    C    0.343700    0.156300    0.000000    0.502000
C38    C    0.296700    0.203300    0.000000    -0.262000
C39    C    0.000000    0.000000    0.156300    0.478000
C40    C    0.000000    0.000000    0.203300    -0.303000
C41    C    0.000000    0.156300    0.343700    0.502000
C42    C    0.000000    0.203300    0.296700    -0.262000
C43    C    0.343700    0.000000    0.000000    0.454000
C44    C    0.296700    0.000000    0.000000    -0.303000
C45    C    0.000000    0.343700    0.156300    0.502000
C46    C    0.000000    0.296700    0.203300    -0.262000
C47    C    0.156300    0.000000    0.000000    0.478000
C48    C    0.203300    0.000000    0.000000    -0.303000
O25    O    0.393200    0.035600    0.035600    -1.164000
O26    O    0.035600    0.393200    0.035600    -1.164000
O27    O    0.035600    0.035600    0.393200    -1.164000
O28    O    0.035600    0.035600    0.035600    -1.176000
O29    O    0.464400    0.464400    0.106800    -1.578000
H25    H    0.453200    0.453200    0.140395    0.611000
O30    O    0.464400    0.464400    0.464400    -1.531000
H26    H    0.453200    0.453200    0.453200    0.616000
O31    O    0.106800    0.464400    0.464400    -1.578000
H27    H    0.140395    0.453200    0.453200    0.611000
O32    O    0.464400    0.106800    0.464400    -1.578000
H28    H    0.453200    0.140395    0.453200    0.611000
C49    C    0.276150    0.038750    0.723850    0.047000
O33    O    0.363450    0.462250    0.636550    -0.625000
H29    H    0.295385    0.072065    0.704615    0.023000
C50    C    0.038750    0.276150    0.961250    0.098000
O34    O    0.462250    0.363450    0.537750    -0.630000
H30    H    0.072065    0.295385    0.927935    0.018000
C51    C    0.223850    0.461250    0.776150    0.104000
O35    O    0.136550    0.037750    0.863450    -0.676000
H31    H    0.204615    0.427935    0.795385    0.021000
C52    C    0.461250    0.223850    0.538750    0.095000
O36    O    0.037750    0.136550    0.962250    -0.642000
H32    H    0.427935    0.204615    0.572065    0.018000
C53    C    0.223850    0.276150    0.538750    0.048000
O37    O    0.136550    0.363450    0.962250    -0.624000
H33    H    0.204615    0.295385    0.572065    0.024000
C54    C    0.461250    0.038750    0.776150    0.099000
O38    O    0.037750    0.462250    0.863450    -0.629000
H34    H    0.427935    0.072065    0.795385    0.019000
C55    C    0.276150    0.223850    0.961250    0.104000
O39    O    0.363450    0.136550    0.537750    -0.676000
H35    H    0.295385    0.204615    0.927935    0.021000
C56    C    0.038750    0.461250    0.723850    0.095000
O40    O    0.462250    0.037750    0.636550    -0.642000
H36    H    0.072065    0.427935    0.704615    0.018000
C57    C    0.038750    0.223850    0.776150    0.048000
O41    O    0.462250    0.136550    0.863450    -0.624000
H37    H    0.072065    0.204615    0.795385    0.024000
C58    C    0.276150    0.461250    0.538750    0.099000
O42    O    0.363450    0.037750    0.962250    -0.629000
H38    H    0.295385    0.427935    0.572065    0.019000
C59    C    0.461250    0.276150    0.723850    0.104000
O43    O    0.037750    0.363450    0.636550    -0.676000
H39    H    0.427935    0.295385    0.704615    0.021000
C60    C    0.223850    0.038750    0.961250    0.095000
O44    O    0.136550    0.462250    0.537750    -0.642000
H40    H    0.204615    0.072065    0.927935    0.018000
C61    C    0.038750    0.276150    0.723850    0.048000
O45    O    0.462250    0.363450    0.636550    -0.624000
H41    H    0.072065    0.295385    0.704615    0.024000
C62    C    0.276150    0.038750    0.961250    0.099000
O46    O    0.363450    0.462250    0.537750    -0.629000
H42    H    0.295385    0.072065    0.927935    0.019000
C63    C    0.461250    0.223850    0.776150    0.104000
O47    O    0.037750    0.136550    0.863450    -0.676000
H43    H    0.427935    0.204615    0.795385    0.021000
C64    C    0.223850    0.461250    0.538750    0.095000
O48    O    0.136550    0.037750    0.962250    -0.642000
H44    H    0.204615    0.427935    0.572065    0.018000
C65    C    0.276150    0.223850    0.538750    0.048000
O49    O    0.363450    0.136550    0.962250    -0.624000
H45    H    0.295385    0.204615    0.572065    0.024000
C66    C    0.038750    0.461250    0.776150    0.099000
O50    O    0.462250    0.037750    0.863450    -0.629000
H46    H    0.072065    0.427935    0.795385    0.019000
C67    C    0.223850    0.276150    0.961250    0.104000
O51    O    0.136550    0.363450    0.537750    -0.676000
H47    H    0.204615    0.295385    0.927935    0.021000
C68    C    0.461250    0.038750    0.723850    0.095000
O52    O    0.037750    0.462250    0.636550    -0.642000
H48    H    0.427935    0.072065    0.704615    0.018000
C69    C    0.223850    0.038750    0.776150    0.048000
O53    O    0.136550    0.462250    0.863450    -0.624000
H49    H    0.204615    0.072065    0.795385    0.024000
C70    C    0.461250    0.276150    0.538750    0.099000
O54    O    0.037750    0.363450    0.962250    -0.629000
H50    H    0.427935    0.295385    0.572065    0.019000
C71    C    0.276150    0.461250    0.723850    0.104000
O55    O    0.363450    0.037750    0.636550    -0.676000
H51    H    0.295385    0.427935    0.704615    0.021000
C72    C    0.038750    0.223850    0.961250    0.095000
O56    O    0.462250    0.136550    0.537750    -0.642000
H52    H    0.072065    0.204615    0.927935    0.018000
Zr7    Zr    0.438150    0.438150    0.561850    3.157000
Zr8    Zr    0.061850    0.061850    0.938150    3.153000
Zr9    Zr    0.061850    0.438150    0.938150    3.157000
Zr10    Zr    0.438150    0.061850    0.561850    3.153000
Zr11    Zr    0.438150    0.061850    0.938150    3.157000
Zr12    Zr    0.061850    0.438150    0.561850    3.153000
C73    C    0.343700    0.000000    0.656300    0.502000
C74    C    0.296700    0.000000    0.703300    -0.262000
C75    C    0.000000    0.343700    0.500000    0.454000
C76    C    0.000000    0.296700    0.500000    -0.303000
C77    C    0.156300    0.000000    0.843700    0.502000
C78    C    0.203300    0.000000    0.796700    -0.262000
C79    C    0.000000    0.156300    0.500000    0.478000
C80    C    0.000000    0.203300    0.500000    -0.303000
C81    C    0.156300    0.343700    0.500000    0.502000
C82    C    0.203300    0.296700    0.500000    -0.262000
C83    C    0.000000    0.000000    0.843700    0.454000
C84    C    0.000000    0.000000    0.796700    -0.303000
C85    C    0.343700    0.156300    0.500000    0.502000
C86    C    0.296700    0.203300    0.500000    -0.262000
C87    C    0.000000    0.000000    0.656300    0.478000
C88    C    0.000000    0.000000    0.703300    -0.303000
C89    C    0.000000    0.156300    0.843700    0.502000
C90    C    0.000000    0.203300    0.796700    -0.262000
C91    C    0.343700    0.000000    0.500000    0.454000
C92    C    0.296700    0.000000    0.500000    -0.303000
C93    C    0.000000    0.343700    0.656300    0.502000
C94    C    0.000000    0.296700    0.703300    -0.262000
C95    C    0.156300    0.000000    0.500000    0.478000
C96    C    0.203300    0.000000    0.500000    -0.303000
O57    O    0.393200    0.035600    0.535600    -1.164000
O58    O    0.035600    0.393200    0.535600    -1.164000
O59    O    0.035600    0.035600    0.893200    -1.164000
O60    O    0.035600    0.035600    0.535600    -1.176000
O61    O    0.464400    0.464400    0.606800    -1.578000
H53    H    0.453200    0.453200    0.640395    0.611000
O62    O    0.464400    0.464400    0.964400    -1.531000
H54    H    0.453200    0.453200    0.953200    0.616000
O63    O    0.106800    0.464400    0.964400    -1.578000
H55    H    0.140395    0.453200    0.953200    0.611000
O64    O    0.464400    0.106800    0.964400    -1.578000
H56    H    0.453200    0.140395    0.953200    0.611000
C97    C    0.276150    0.538750    0.223850    0.047000
O65    O    0.363450    0.962250    0.136550    -0.625000
H57    H    0.295385    0.572065    0.204615    0.023000
C98    C    0.038750    0.776150    0.461250    0.098000
O66    O    0.462250    0.863450    0.037750    -0.630000
H58    H    0.072065    0.795385    0.427935    0.018000
C99    C    0.223850    0.961250    0.276150    0.104000
O67    O    0.136550    0.537750    0.363450    -0.676000
H59    H    0.204615    0.927935    0.295385    0.021000
C100    C    0.461250    0.723850    0.038750    0.095000
O68    O    0.037750    0.636550    0.462250    -0.642000
H60    H    0.427935    0.704615    0.072065    0.018000
C101    C    0.223850    0.776150    0.038750    0.048000
O69    O    0.136550    0.863450    0.462250    -0.624000
H61    H    0.204615    0.795385    0.072065    0.024000
C102    C    0.461250    0.538750    0.276150    0.099000
O70    O    0.037750    0.962250    0.363450    -0.629000
H62    H    0.427935    0.572065    0.295385    0.019000
C103    C    0.276150    0.723850    0.461250    0.104000
O71    O    0.363450    0.636550    0.037750    -0.676000
H63    H    0.295385    0.704615    0.427935    0.021000
C104    C    0.038750    0.961250    0.223850    0.095000
O72    O    0.462250    0.537750    0.136550    -0.642000
H64    H    0.072065    0.927935    0.204615    0.018000
C105    C    0.038750    0.723850    0.276150    0.048000
O73    O    0.462250    0.636550    0.363450    -0.624000
H65    H    0.072065    0.704615    0.295385    0.024000
C106    C    0.276150    0.961250    0.038750    0.099000
O74    O    0.363450    0.537750    0.462250    -0.629000
H66    H    0.295385    0.927935    0.072065    0.019000
C107    C    0.461250    0.776150    0.223850    0.104000
O75    O    0.037750    0.863450    0.136550    -0.676000
H67    H    0.427935    0.795385    0.204615    0.021000
C108    C    0.223850    0.538750    0.461250    0.095000
O76    O    0.136550    0.962250    0.037750    -0.642000
H68    H    0.204615    0.572065    0.427935    0.018000
C109    C    0.038750    0.776150    0.223850    0.048000
O77    O    0.462250    0.863450    0.136550    -0.624000
H69    H    0.072065    0.795385    0.204615    0.024000
C110    C    0.276150    0.538750    0.461250    0.099000
O78    O    0.363450    0.962250    0.037750    -0.629000
H70    H    0.295385    0.572065    0.427935    0.019000
C111    C    0.461250    0.723850    0.276150    0.104000
O79    O    0.037750    0.636550    0.363450    -0.676000
H71    H    0.427935    0.704615    0.295385    0.021000
C112    C    0.223850    0.961250    0.038750    0.095000
O80    O    0.136550    0.537750    0.462250    -0.642000
H72    H    0.204615    0.927935    0.072065    0.018000
C113    C    0.276150    0.723850    0.038750    0.048000
O81    O    0.363450    0.636550    0.462250    -0.624000
H73    H    0.295385    0.704615    0.072065    0.024000
C114    C    0.038750    0.961250    0.276150    0.099000
O82    O    0.462250    0.537750    0.363450    -0.629000
H74    H    0.072065    0.927935    0.295385    0.019000
C115    C    0.223850    0.776150    0.461250    0.104000
O83    O    0.136550    0.863450    0.037750    -0.676000
H75    H    0.204615    0.795385    0.427935    0.021000
C116    C    0.461250    0.538750    0.223850    0.095000
O84    O    0.037750    0.962250    0.136550    -0.642000
H76    H    0.427935    0.572065    0.204615    0.018000
C117    C    0.223850    0.538750    0.276150    0.048000
O85    O    0.136550    0.962250    0.363450    -0.624000
H77    H    0.204615    0.572065    0.295385    0.024000
C118    C    0.461250    0.776150    0.038750    0.099000
O86    O    0.037750    0.863450    0.462250    -0.629000
H78    H    0.427935    0.795385    0.072065    0.019000
C119    C    0.276150    0.961250    0.223850    0.104000
O87    O    0.363450    0.537750    0.136550    -0.676000
H79    H    0.295385    0.927935    0.204615    0.021000
C120    C    0.038750    0.723850    0.461250    0.095000
O88    O    0.462250    0.636550    0.037750    -0.642000
H80    H    0.072065    0.704615    0.427935    0.018000
Zr13    Zr    0.438150    0.938150    0.061850    3.157000
Zr14    Zr    0.061850    0.561850    0.438150    3.153000
Zr15    Zr    0.061850    0.938150    0.438150    3.157000
Zr16    Zr    0.438150    0.561850    0.061850    3.153000
Zr17    Zr    0.438150    0.561850    0.438150    3.157000
Zr18    Zr    0.061850    0.938150    0.061850    3.153000
C121    C    0.343700    0.500000    0.156300    0.502000
C122    C    0.296700    0.500000    0.203300    -0.262000
C123    C    0.000000    0.843700    0.000000    0.454000
C124    C    0.000000    0.796700    0.000000    -0.303000
C125    C    0.156300    0.500000    0.343700    0.502000
C126    C    0.203300    0.500000    0.296700    -0.262000
C127    C    0.000000    0.656300    0.000000    0.478000
C128    C    0.000000    0.703300    0.000000    -0.303000
C129    C    0.156300    0.843700    0.000000    0.502000
C130    C    0.203300    0.796700    0.000000    -0.262000
C131    C    0.000000    0.500000    0.343700    0.454000
C132    C    0.000000    0.500000    0.296700    -0.303000
C133    C    0.343700    0.656300    0.000000    0.502000
C134    C    0.296700    0.703300    0.000000    -0.262000
C135    C    0.000000    0.500000    0.156300    0.478000
C136    C    0.000000    0.500000    0.203300    -0.303000
C137    C    0.000000    0.656300    0.343700    0.502000
C138    C    0.000000    0.703300    0.296700    -0.262000
C139    C    0.343700    0.500000    0.000000    0.454000
C140    C    0.296700    0.500000    0.000000    -0.303000
C141    C    0.000000    0.843700    0.156300    0.502000
C142    C    0.000000    0.796700    0.203300    -0.262000
C143    C    0.156300    0.500000    0.000000    0.478000
C144    C    0.203300    0.500000    0.000000    -0.303000
O89    O    0.393200    0.535600    0.035600    -1.164000
O90    O    0.035600    0.893200    0.035600    -1.164000
O91    O    0.035600    0.535600    0.393200    -1.164000
O92    O    0.035600    0.535600    0.035600    -1.176000
O93    O    0.464400    0.964400    0.106800    -1.578000
H81    H    0.453200    0.953200    0.140395    0.611000
O94    O    0.464400    0.964400    0.464400    -1.531000
H82    H    0.453200    0.953200    0.453200    0.616000
O95    O    0.106800    0.964400    0.464400    -1.578000
H83    H    0.140395    0.953200    0.453200    0.611000
O96    O    0.464400    0.606800    0.464400    -1.578000
H84    H    0.453200    0.640395    0.453200    0.611000
C145    C    0.276150    0.538750    0.723850    0.047000
O97    O    0.363450    0.962250    0.636550    -0.625000
H85    H    0.295385    0.572065    0.704615    0.023000
C146    C    0.038750    0.776150    0.961250    0.098000
O98    O    0.462250    0.863450    0.537750    -0.630000
H86    H    0.072065    0.795385    0.927935    0.018000
C147    C    0.223850    0.961250    0.776150    0.104000
O99    O    0.136550    0.537750    0.863450    -0.676000
H87    H    0.204615    0.927935    0.795385    0.021000
C148    C    0.461250    0.723850    0.538750    0.095000
O100    O    0.037750    0.636550    0.962250    -0.642000
H88    H    0.427935    0.704615    0.572065    0.018000
C149    C    0.223850    0.776150    0.538750    0.048000
O101    O    0.136550    0.863450    0.962250    -0.624000
H89    H    0.204615    0.795385    0.572065    0.024000
C150    C    0.461250    0.538750    0.776150    0.099000
O102    O    0.037750    0.962250    0.863450    -0.629000
H90    H    0.427935    0.572065    0.795385    0.019000
C151    C    0.276150    0.723850    0.961250    0.104000
O103    O    0.363450    0.636550    0.537750    -0.676000
H91    H    0.295385    0.704615    0.927935    0.021000
C152    C    0.038750    0.961250    0.723850    0.095000
O104    O    0.462250    0.537750    0.636550    -0.642000
H92    H    0.072065    0.927935    0.704615    0.018000
C153    C    0.038750    0.723850    0.776150    0.048000
O105    O    0.462250    0.636550    0.863450    -0.624000
H93    H    0.072065    0.704615    0.795385    0.024000
C154    C    0.276150    0.961250    0.538750    0.099000
O106    O    0.363450    0.537750    0.962250    -0.629000
H94    H    0.295385    0.927935    0.572065    0.019000
C155    C    0.461250    0.776150    0.723850    0.104000
O107    O    0.037750    0.863450    0.636550    -0.676000
H95    H    0.427935    0.795385    0.704615    0.021000
C156    C    0.223850    0.538750    0.961250    0.095000
O108    O    0.136550    0.962250    0.537750    -0.642000
H96    H    0.204615    0.572065    0.927935    0.018000
C157    C    0.038750    0.776150    0.723850    0.048000
O109    O    0.462250    0.863450    0.636550    -0.624000
H97    H    0.072065    0.795385    0.704615    0.024000
C158    C    0.276150    0.538750    0.961250    0.099000
O110    O    0.363450    0.962250    0.537750    -0.629000
H98    H    0.295385    0.572065    0.927935    0.019000
C159    C    0.461250    0.723850    0.776150    0.104000
O111    O    0.037750    0.636550    0.863450    -0.676000
H99    H    0.427935    0.704615    0.795385    0.021000
C160    C    0.223850    0.961250    0.538750    0.095000
O112    O    0.136550    0.537750    0.962250    -0.642000
H100    H    0.204615    0.927935    0.572065    0.018000
C161    C    0.276150    0.723850    0.538750    0.048000
O113    O    0.363450    0.636550    0.962250    -0.624000
H101    H    0.295385    0.704615    0.572065    0.024000
C162    C    0.038750    0.961250    0.776150    0.099000
O114    O    0.462250    0.537750    0.863450    -0.629000
H102    H    0.072065    0.927935    0.795385    0.019000
C163    C    0.223850    0.776150    0.961250    0.104000
O115    O    0.136550    0.863450    0.537750    -0.676000
H103    H    0.204615    0.795385    0.927935    0.021000
C164    C    0.461250    0.538750    0.723850    0.095000
O116    O    0.037750    0.962250    0.636550    -0.642000
H104    H    0.427935    0.572065    0.704615    0.018000
C165    C    0.223850    0.538750    0.776150    0.048000
O117    O    0.136550    0.962250    0.863450    -0.624000
H105    H    0.204615    0.572065    0.795385    0.024000
C166    C    0.461250    0.776150    0.538750    0.099000
O118    O    0.037750    0.863450    0.962250    -0.629000
H106    H    0.427935    0.795385    0.572065    0.019000
C167    C    0.276150    0.961250    0.723850    0.104000
O119    O    0.363450    0.537750    0.636550    -0.676000
H107    H    0.295385    0.927935    0.704615    0.021000
C168    C    0.038750    0.723850    0.961250    0.095000
O120    O    0.462250    0.636550    0.537750    -0.642000
H108    H    0.072065    0.704615    0.927935    0.018000
Zr19    Zr    0.438150    0.938150    0.561850    3.157000
Zr20    Zr    0.061850    0.561850    0.938150    3.153000
Zr21    Zr    0.061850    0.938150    0.938150    3.157000
Zr22    Zr    0.438150    0.561850    0.561850    3.153000
Zr23    Zr    0.438150    0.561850    0.938150    3.157000
Zr24    Zr    0.061850    0.938150    0.561850    3.153000
C169    C    0.343700    0.500000    0.656300    0.502000
C170    C    0.296700    0.500000    0.703300    -0.262000
C171    C    0.000000    0.843700    0.500000    0.454000
C172    C    0.000000    0.796700    0.500000    -0.303000
C173    C    0.156300    0.500000    0.843700    0.502000
C174    C    0.203300    0.500000    0.796700    -0.262000
C175    C    0.000000    0.656300    0.500000    0.478000
C176    C    0.000000    0.703300    0.500000    -0.303000
C177    C    0.156300    0.843700    0.500000    0.502000
C178    C    0.203300    0.796700    0.500000    -0.262000
C179    C    0.000000    0.500000    0.843700    0.454000
C180    C    0.000000    0.500000    0.796700    -0.303000
C181    C    0.343700    0.656300    0.500000    0.502000
C182    C    0.296700    0.703300    0.500000    -0.262000
C183    C    0.000000    0.500000    0.656300    0.478000
C184    C    0.000000    0.500000    0.703300    -0.303000
C185    C    0.000000    0.656300    0.843700    0.502000
C186    C    0.000000    0.703300    0.796700    -0.262000
C187    C    0.343700    0.500000    0.500000    0.454000
C188    C    0.296700    0.500000    0.500000    -0.303000
C189    C    0.000000    0.843700    0.656300    0.502000
C190    C    0.000000    0.796700    0.703300    -0.262000
C191    C    0.156300    0.500000    0.500000    0.478000
C192    C    0.203300    0.500000    0.500000    -0.303000
O121    O    0.393200    0.535600    0.535600    -1.164000
O122    O    0.035600    0.893200    0.535600    -1.164000
O123    O    0.035600    0.535600    0.893200    -1.164000
O124    O    0.035600    0.535600    0.535600    -1.176000
O125    O    0.464400    0.964400    0.606800    -1.578000
H109    H    0.453200    0.953200    0.640395    0.611000
O126    O    0.464400    0.964400    0.964400    -1.531000
H110    H    0.453200    0.953200    0.953200    0.616000
O127    O    0.106800    0.964400    0.964400    -1.578000
H111    H    0.140395    0.953200    0.953200    0.611000
O128    O    0.464400    0.606800    0.964400    -1.578000
H112    H    0.453200    0.640395    0.953200    0.611000
C193    C    0.776150    0.038750    0.223850    0.047000
O129    O    0.863450    0.462250    0.136550    -0.625000
H113    H    0.795385    0.072065    0.204615    0.023000
C194    C    0.538750    0.276150    0.461250    0.098000
O130    O    0.962250    0.363450    0.037750    -0.630000
H114    H    0.572065    0.295385    0.427935    0.018000
C195    C    0.723850    0.461250    0.276150    0.104000
O131    O    0.636550    0.037750    0.363450    -0.676000
H115    H    0.704615    0.427935    0.295385    0.021000
C196    C    0.961250    0.223850    0.038750    0.095000
O132    O    0.537750    0.136550    0.462250    -0.642000
H116    H    0.927935    0.204615    0.072065    0.018000
C197    C    0.723850    0.276150    0.038750    0.048000
O133    O    0.636550    0.363450    0.462250    -0.624000
H117    H    0.704615    0.295385    0.072065    0.024000
C198    C    0.961250    0.038750    0.276150    0.099000
O134    O    0.537750    0.462250    0.363450    -0.629000
H118    H    0.927935    0.072065    0.295385    0.019000
C199    C    0.776150    0.223850    0.461250    0.104000
O135    O    0.863450    0.136550    0.037750    -0.676000
H119    H    0.795385    0.204615    0.427935    0.021000
C200    C    0.538750    0.461250    0.223850    0.095000
O136    O    0.962250    0.037750    0.136550    -0.642000
H120    H    0.572065    0.427935    0.204615    0.018000
C201    C    0.538750    0.223850    0.276150    0.048000
O137    O    0.962250    0.136550    0.363450    -0.624000
H121    H    0.572065    0.204615    0.295385    0.024000
C202    C    0.776150    0.461250    0.038750    0.099000
O138    O    0.863450    0.037750    0.462250    -0.629000
H122    H    0.795385    0.427935    0.072065    0.019000
C203    C    0.961250    0.276150    0.223850    0.104000
O139    O    0.537750    0.363450    0.136550    -0.676000
H123    H    0.927935    0.295385    0.204615    0.021000
C204    C    0.723850    0.038750    0.461250    0.095000
O140    O    0.636550    0.462250    0.037750    -0.642000
H124    H    0.704615    0.072065    0.427935    0.018000
C205    C    0.538750    0.276150    0.223850    0.048000
O141    O    0.962250    0.363450    0.136550    -0.624000
H125    H    0.572065    0.295385    0.204615    0.024000
C206    C    0.776150    0.038750    0.461250    0.099000
O142    O    0.863450    0.462250    0.037750    -0.629000
H126    H    0.795385    0.072065    0.427935    0.019000
C207    C    0.961250    0.223850    0.276150    0.104000
O143    O    0.537750    0.136550    0.363450    -0.676000
H127    H    0.927935    0.204615    0.295385    0.021000
C208    C    0.723850    0.461250    0.038750    0.095000
O144    O    0.636550    0.037750    0.462250    -0.642000
H128    H    0.704615    0.427935    0.072065    0.018000
C209    C    0.776150    0.223850    0.038750    0.048000
O145    O    0.863450    0.136550    0.462250    -0.624000
H129    H    0.795385    0.204615    0.072065    0.024000
C210    C    0.538750    0.461250    0.276150    0.099000
O146    O    0.962250    0.037750    0.363450    -0.629000
H130    H    0.572065    0.427935    0.295385    0.019000
C211    C    0.723850    0.276150    0.461250    0.104000
O147    O    0.636550    0.363450    0.037750    -0.676000
H131    H    0.704615    0.295385    0.427935    0.021000
C212    C    0.961250    0.038750    0.223850    0.095000
O148    O    0.537750    0.462250    0.136550    -0.642000
H132    H    0.927935    0.072065    0.204615    0.018000
C213    C    0.723850    0.038750    0.276150    0.048000
O149    O    0.636550    0.462250    0.363450    -0.624000
H133    H    0.704615    0.072065    0.295385    0.024000
C214    C    0.961250    0.276150    0.038750    0.099000
O150    O    0.537750    0.363450    0.462250    -0.629000
H134    H    0.927935    0.295385    0.072065    0.019000
C215    C    0.776150    0.461250    0.223850    0.104000
O151    O    0.863450    0.037750    0.136550    -0.676000
H135    H    0.795385    0.427935    0.204615    0.021000
C216    C    0.538750    0.223850    0.461250    0.095000
O152    O    0.962250    0.136550    0.037750    -0.642000
H136    H    0.572065    0.204615    0.427935    0.018000
Zr25    Zr    0.938150    0.438150    0.061850    3.157000
Zr26    Zr    0.561850    0.061850    0.438150    3.153000
Zr27    Zr    0.561850    0.438150    0.438150    3.157000
Zr28    Zr    0.938150    0.061850    0.061850    3.153000
Zr29    Zr    0.938150    0.061850    0.438150    3.157000
Zr30    Zr    0.561850    0.438150    0.061850    3.153000
C217    C    0.843700    0.000000    0.156300    0.502000
C218    C    0.796700    0.000000    0.203300    -0.262000
C219    C    0.500000    0.343700    0.000000    0.454000
C220    C    0.500000    0.296700    0.000000    -0.303000
C221    C    0.656300    0.000000    0.343700    0.502000
C222    C    0.703300    0.000000    0.296700    -0.262000
C223    C    0.500000    0.156300    0.000000    0.478000
C224    C    0.500000    0.203300    0.000000    -0.303000
C225    C    0.656300    0.343700    0.000000    0.502000
C226    C    0.703300    0.296700    0.000000    -0.262000
C227    C    0.500000    0.000000    0.343700    0.454000
C228    C    0.500000    0.000000    0.296700    -0.303000
C229    C    0.843700    0.156300    0.000000    0.502000
C230    C    0.796700    0.203300    0.000000    -0.262000
C231    C    0.500000    0.000000    0.156300    0.478000
C232    C    0.500000    0.000000    0.203300    -0.303000
C233    C    0.500000    0.156300    0.343700    0.502000
C234    C    0.500000    0.203300    0.296700    -0.262000
C235    C    0.843700    0.000000    0.000000    0.454000
C236    C    0.796700    0.000000    0.000000    -0.303000
C237    C    0.500000    0.343700    0.156300    0.502000
C238    C    0.500000    0.296700    0.203300    -0.262000
C239    C    0.656300    0.000000    0.000000    0.478000
C240    C    0.703300    0.000000    0.000000    -0.303000
O153    O    0.893200    0.035600    0.035600    -1.164000
O154    O    0.535600    0.393200    0.035600    -1.164000
O155    O    0.535600    0.035600    0.393200    -1.164000
O156    O    0.535600    0.035600    0.035600    -1.176000
O157    O    0.964400    0.464400    0.106800    -1.578000
H137    H    0.953200    0.453200    0.140395    0.611000
O158    O    0.964400    0.464400    0.464400    -1.531000
H138    H    0.953200    0.453200    0.453200    0.616000
O159    O    0.606800    0.464400    0.464400    -1.578000
H139    H    0.640395    0.453200    0.453200    0.611000
O160    O    0.964400    0.106800    0.464400    -1.578000
H140    H    0.953200    0.140395    0.453200    0.611000
C241    C    0.776150    0.038750    0.723850    0.047000
O161    O    0.863450    0.462250    0.636550    -0.625000
H141    H    0.795385    0.072065    0.704615    0.023000
C242    C    0.538750    0.276150    0.961250    0.098000
O162    O    0.962250    0.363450    0.537750    -0.630000
H142    H    0.572065    0.295385    0.927935    0.018000
C243    C    0.723850    0.461250    0.776150    0.104000
O163    O    0.636550    0.037750    0.863450    -0.676000
H143    H    0.704615    0.427935    0.795385    0.021000
C244    C    0.961250    0.223850    0.538750    0.095000
O164    O    0.537750    0.136550    0.962250    -0.642000
H144    H    0.927935    0.204615    0.572065    0.018000
C245    C    0.723850    0.276150    0.538750    0.048000
O165    O    0.636550    0.363450    0.962250    -0.624000
H145    H    0.704615    0.295385    0.572065    0.024000
C246    C    0.961250    0.038750    0.776150    0.099000
O166    O    0.537750    0.462250    0.863450    -0.629000
H146    H    0.927935    0.072065    0.795385    0.019000
C247    C    0.776150    0.223850    0.961250    0.104000
O167    O    0.863450    0.136550    0.537750    -0.676000
H147    H    0.795385    0.204615    0.927935    0.021000
C248    C    0.538750    0.461250    0.723850    0.095000
O168    O    0.962250    0.037750    0.636550    -0.642000
H148    H    0.572065    0.427935    0.704615    0.018000
C249    C    0.538750    0.223850    0.776150    0.048000
O169    O    0.962250    0.136550    0.863450    -0.624000
H149    H    0.572065    0.204615    0.795385    0.024000
C250    C    0.776150    0.461250    0.538750    0.099000
O170    O    0.863450    0.037750    0.962250    -0.629000
H150    H    0.795385    0.427935    0.572065    0.019000
C251    C    0.961250    0.276150    0.723850    0.104000
O171    O    0.537750    0.363450    0.636550    -0.676000
H151    H    0.927935    0.295385    0.704615    0.021000
C252    C    0.723850    0.038750    0.961250    0.095000
O172    O    0.636550    0.462250    0.537750    -0.642000
H152    H    0.704615    0.072065    0.927935    0.018000
C253    C    0.538750    0.276150    0.723850    0.048000
O173    O    0.962250    0.363450    0.636550    -0.624000
H153    H    0.572065    0.295385    0.704615    0.024000
C254    C    0.776150    0.038750    0.961250    0.099000
O174    O    0.863450    0.462250    0.537750    -0.629000
H154    H    0.795385    0.072065    0.927935    0.019000
C255    C    0.961250    0.223850    0.776150    0.104000
O175    O    0.537750    0.136550    0.863450    -0.676000
H155    H    0.927935    0.204615    0.795385    0.021000
C256    C    0.723850    0.461250    0.538750    0.095000
O176    O    0.636550    0.037750    0.962250    -0.642000
H156    H    0.704615    0.427935    0.572065    0.018000
C257    C    0.776150    0.223850    0.538750    0.048000
O177    O    0.863450    0.136550    0.962250    -0.624000
H157    H    0.795385    0.204615    0.572065    0.024000
C258    C    0.538750    0.461250    0.776150    0.099000
O178    O    0.962250    0.037750    0.863450    -0.629000
H158    H    0.572065    0.427935    0.795385    0.019000
C259    C    0.723850    0.276150    0.961250    0.104000
O179    O    0.636550    0.363450    0.537750    -0.676000
H159    H    0.704615    0.295385    0.927935    0.021000
C260    C    0.961250    0.038750    0.723850    0.095000
O180    O    0.537750    0.462250    0.636550    -0.642000
H160    H    0.927935    0.072065    0.704615    0.018000
C261    C    0.723850    0.038750    0.776150    0.048000
O181    O    0.636550    0.462250    0.863450    -0.624000
H161    H    0.704615    0.072065    0.795385    0.024000
C262    C    0.961250    0.276150    0.538750    0.099000
O182    O    0.537750    0.363450    0.962250    -0.629000
H162    H    0.927935    0.295385    0.572065    0.019000
C263    C    0.776150    0.461250    0.723850    0.104000
O183    O    0.863450    0.037750    0.636550    -0.676000
H163    H    0.795385    0.427935    0.704615    0.021000
C264    C    0.538750    0.223850    0.961250    0.095000
O184    O    0.962250    0.136550    0.537750    -0.642000
H164    H    0.572065    0.204615    0.927935    0.018000
Zr31    Zr    0.938150    0.438150    0.561850    3.157000
Zr32    Zr    0.561850    0.061850    0.938150    3.153000
Zr33    Zr    0.561850    0.438150    0.938150    3.157000
Zr34    Zr    0.938150    0.061850    0.561850    3.153000
Zr35    Zr    0.938150    0.061850    0.938150    3.157000
Zr36    Zr    0.561850    0.438150    0.561850    3.153000
C265    C    0.843700    0.000000    0.656300    0.502000
C266    C    0.796700    0.000000    0.703300    -0.262000
C267    C    0.500000    0.343700    0.500000    0.454000
C268    C    0.500000    0.296700    0.500000    -0.303000
C269    C    0.656300    0.000000    0.843700    0.502000
C270    C    0.703300    0.000000    0.796700    -0.262000
C271    C    0.500000    0.156300    0.500000    0.478000
C272    C    0.500000    0.203300    0.500000    -0.303000
C273    C    0.656300    0.343700    0.500000    0.502000
C274    C    0.703300    0.296700    0.500000    -0.262000
C275    C    0.500000    0.000000    0.843700    0.454000
C276    C    0.500000    0.000000    0.796700    -0.303000
C277    C    0.843700    0.156300    0.500000    0.502000
C278    C    0.796700    0.203300    0.500000    -0.262000
C279    C    0.500000    0.000000    0.656300    0.478000
C280    C    0.500000    0.000000    0.703300    -0.303000
C281    C    0.500000    0.156300    0.843700    0.502000
C282    C    0.500000    0.203300    0.796700    -0.262000
C283    C    0.843700    0.000000    0.500000    0.454000
C284    C    0.796700    0.000000    0.500000    -0.303000
C285    C    0.500000    0.343700    0.656300    0.502000
C286    C    0.500000    0.296700    0.703300    -0.262000
C287    C    0.656300    0.000000    0.500000    0.478000
C288    C    0.703300    0.000000    0.500000    -0.303000
O185    O    0.893200    0.035600    0.535600    -1.164000
O186    O    0.535600    0.393200    0.535600    -1.164000
O187    O    0.535600    0.035600    0.893200    -1.164000
O188    O    0.535600    0.035600    0.535600    -1.176000
O189    O    0.964400    0.464400    0.606800    -1.578000
H165    H    0.953200    0.453200    0.640395    0.611000
O190    O    0.964400    0.464400    0.964400    -1.531000
H166    H    0.953200    0.453200    0.953200    0.616000
O191    O    0.606800    0.464400    0.964400    -1.578000
H167    H    0.640395    0.453200    0.953200    0.611000
O192    O    0.964400    0.106800    0.964400    -1.578000
H168    H    0.953200    0.140395    0.953200    0.611000
C289    C    0.776150    0.538750    0.223850    0.047000
O193    O    0.863450    0.962250    0.136550    -0.625000
H169    H    0.795385    0.572065    0.204615    0.023000
C290    C    0.538750    0.776150    0.461250    0.098000
O194    O    0.962250    0.863450    0.037750    -0.630000
H170    H    0.572065    0.795385    0.427935    0.018000
C291    C    0.723850    0.961250    0.276150    0.104000
O195    O    0.636550    0.537750    0.363450    -0.676000
H171    H    0.704615    0.927935    0.295385    0.021000
C292    C    0.961250    0.723850    0.038750    0.095000
O196    O    0.537750    0.636550    0.462250    -0.642000
H172    H    0.927935    0.704615    0.072065    0.018000
C293    C    0.723850    0.776150    0.038750    0.048000
O197    O    0.636550    0.863450    0.462250    -0.624000
H173    H    0.704615    0.795385    0.072065    0.024000
C294    C    0.961250    0.538750    0.276150    0.099000
O198    O    0.537750    0.962250    0.363450    -0.629000
H174    H    0.927935    0.572065    0.295385    0.019000
C295    C    0.776150    0.723850    0.461250    0.104000
O199    O    0.863450    0.636550    0.037750    -0.676000
H175    H    0.795385    0.704615    0.427935    0.021000
C296    C    0.538750    0.961250    0.223850    0.095000
O200    O    0.962250    0.537750    0.136550    -0.642000
H176    H    0.572065    0.927935    0.204615    0.018000
C297    C    0.538750    0.723850    0.276150    0.048000
O201    O    0.962250    0.636550    0.363450    -0.624000
H177    H    0.572065    0.704615    0.295385    0.024000
C298    C    0.776150    0.961250    0.038750    0.099000
O202    O    0.863450    0.537750    0.462250    -0.629000
H178    H    0.795385    0.927935    0.072065    0.019000
C299    C    0.961250    0.776150    0.223850    0.104000
O203    O    0.537750    0.863450    0.136550    -0.676000
H179    H    0.927935    0.795385    0.204615    0.021000
C300    C    0.723850    0.538750    0.461250    0.095000
O204    O    0.636550    0.962250    0.037750    -0.642000
H180    H    0.704615    0.572065    0.427935    0.018000
C301    C    0.538750    0.776150    0.223850    0.048000
O205    O    0.962250    0.863450    0.136550    -0.624000
H181    H    0.572065    0.795385    0.204615    0.024000
C302    C    0.776150    0.538750    0.461250    0.099000
O206    O    0.863450    0.962250    0.037750    -0.629000
H182    H    0.795385    0.572065    0.427935    0.019000
C303    C    0.961250    0.723850    0.276150    0.104000
O207    O    0.537750    0.636550    0.363450    -0.676000
H183    H    0.927935    0.704615    0.295385    0.021000
C304    C    0.723850    0.961250    0.038750    0.095000
O208    O    0.636550    0.537750    0.462250    -0.642000
H184    H    0.704615    0.927935    0.072065    0.018000
C305    C    0.776150    0.723850    0.038750    0.048000
O209    O    0.863450    0.636550    0.462250    -0.624000
H185    H    0.795385    0.704615    0.072065    0.024000
C306    C    0.538750    0.961250    0.276150    0.099000
O210    O    0.962250    0.537750    0.363450    -0.629000
H186    H    0.572065    0.927935    0.295385    0.019000
C307    C    0.723850    0.776150    0.461250    0.104000
O211    O    0.636550    0.863450    0.037750    -0.676000
H187    H    0.704615    0.795385    0.427935    0.021000
C308    C    0.961250    0.538750    0.223850    0.095000
O212    O    0.537750    0.962250    0.136550    -0.642000
H188    H    0.927935    0.572065    0.204615    0.018000
C309    C    0.723850    0.538750    0.276150    0.048000
O213    O    0.636550    0.962250    0.363450    -0.624000
H189    H    0.704615    0.572065    0.295385    0.024000
C310    C    0.961250    0.776150    0.038750    0.099000
O214    O    0.537750    0.863450    0.462250    -0.629000
H190    H    0.927935    0.795385    0.072065    0.019000
C311    C    0.776150    0.961250    0.223850    0.104000
O215    O    0.863450    0.537750    0.136550    -0.676000
H191    H    0.795385    0.927935    0.204615    0.021000
C312    C    0.538750    0.723850    0.461250    0.095000
O216    O    0.962250    0.636550    0.037750    -0.642000
H192    H    0.572065    0.704615    0.427935    0.018000
Zr37    Zr    0.938150    0.938150    0.061850    3.157000
Zr38    Zr    0.561850    0.561850    0.438150    3.153000
Zr39    Zr    0.561850    0.938150    0.438150    3.157000
Zr40    Zr    0.938150    0.561850    0.061850    3.153000
Zr41    Zr    0.938150    0.561850    0.438150    3.157000
Zr42    Zr    0.561850    0.938150    0.061850    3.153000
C313    C    0.843700    0.500000    0.156300    0.502000
C314    C    0.796700    0.500000    0.203300    -0.262000
C315    C    0.500000    0.843700    0.000000    0.454000
C316    C    0.500000    0.796700    0.000000    -0.303000
C317    C    0.656300    0.500000    0.343700    0.502000
C318    C    0.703300    0.500000    0.296700    -0.262000
C319    C    0.500000    0.656300    0.000000    0.478000
C320    C    0.500000    0.703300    0.000000    -0.303000
C321    C    0.656300    0.843700    0.000000    0.502000
C322    C    0.703300    0.796700    0.000000    -0.262000
C323    C    0.500000    0.500000    0.343700    0.454000
C324    C    0.500000    0.500000    0.296700    -0.303000
C325    C    0.843700    0.656300    0.000000    0.502000
C326    C    0.796700    0.703300    0.000000    -0.262000
C327    C    0.500000    0.500000    0.156300    0.478000
C328    C    0.500000    0.500000    0.203300    -0.303000
C329    C    0.500000    0.656300    0.343700    0.502000
C330    C    0.500000    0.703300    0.296700    -0.262000
C331    C    0.843700    0.500000    0.000000    0.454000
C332    C    0.796700    0.500000    0.000000    -0.303000
C333    C    0.500000    0.843700    0.156300    0.502000
C334    C    0.500000    0.796700    0.203300    -0.262000
C335    C    0.656300    0.500000    0.000000    0.478000
C336    C    0.703300    0.500000    0.000000    -0.303000
O217    O    0.893200    0.535600    0.035600    -1.164000
O218    O    0.535600    0.893200    0.035600    -1.164000
O219    O    0.535600    0.535600    0.393200    -1.164000
O220    O    0.535600    0.535600    0.035600    -1.176000
O221    O    0.964400    0.964400    0.106800    -1.578000
H193    H    0.953200    0.953200    0.140395    0.611000
O222    O    0.964400    0.964400    0.464400    -1.531000
H194    H    0.953200    0.953200    0.453200    0.616000
O223    O    0.606800    0.964400    0.464400    -1.578000
H195    H    0.640395    0.953200    0.453200    0.611000
O224    O    0.964400    0.606800    0.464400    -1.578000
H196    H    0.953200    0.640395    0.453200    0.611000
C337    C    0.776150    0.538750    0.723850    0.047000
O225    O    0.863450    0.962250    0.636550    -0.625000
H197    H    0.795385    0.572065    0.704615    0.023000
C338    C    0.538750    0.776150    0.961250    0.098000
O226    O    0.962250    0.863450    0.537750    -0.630000
H198    H    0.572065    0.795385    0.927935    0.018000
C339    C    0.723850    0.961250    0.776150    0.104000
O227    O    0.636550    0.537750    0.863450    -0.676000
H199    H    0.704615    0.927935    0.795385    0.021000
C340    C    0.961250    0.723850    0.538750    0.095000
O228    O    0.537750    0.636550    0.962250    -0.642000
H200    H    0.927935    0.704615    0.572065    0.018000
C341    C    0.723850    0.776150    0.538750    0.048000
O229    O    0.636550    0.863450    0.962250    -0.624000
H201    H    0.704615    0.795385    0.572065    0.024000
C342    C    0.961250    0.538750    0.776150    0.099000
O230    O    0.537750    0.962250    0.863450    -0.629000
H202    H    0.927935    0.572065    0.795385    0.019000
C343    C    0.776150    0.723850    0.961250    0.104000
O231    O    0.863450    0.636550    0.537750    -0.676000
H203    H    0.795385    0.704615    0.927935    0.021000
C344    C    0.538750    0.961250    0.723850    0.095000
O232    O    0.962250    0.537750    0.636550    -0.642000
H204    H    0.572065    0.927935    0.704615    0.018000
C345    C    0.538750    0.723850    0.776150    0.048000
O233    O    0.962250    0.636550    0.863450    -0.624000
H205    H    0.572065    0.704615    0.795385    0.024000
C346    C    0.776150    0.961250    0.538750    0.099000
O234    O    0.863450    0.537750    0.962250    -0.629000
H206    H    0.795385    0.927935    0.572065    0.019000
C347    C    0.961250    0.776150    0.723850    0.104000
O235    O    0.537750    0.863450    0.636550    -0.676000
H207    H    0.927935    0.795385    0.704615    0.021000
C348    C    0.723850    0.538750    0.961250    0.095000
O236    O    0.636550    0.962250    0.537750    -0.642000
H208    H    0.704615    0.572065    0.927935    0.018000
C349    C    0.538750    0.776150    0.723850    0.048000
O237    O    0.962250    0.863450    0.636550    -0.624000
H209    H    0.572065    0.795385    0.704615    0.024000
C350    C    0.776150    0.538750    0.961250    0.099000
O238    O    0.863450    0.962250    0.537750    -0.629000
H210    H    0.795385    0.572065    0.927935    0.019000
C351    C    0.961250    0.723850    0.776150    0.104000
O239    O    0.537750    0.636550    0.863450    -0.676000
H211    H    0.927935    0.704615    0.795385    0.021000
C352    C    0.723850    0.961250    0.538750    0.095000
O240    O    0.636550    0.537750    0.962250    -0.642000
H212    H    0.704615    0.927935    0.572065    0.018000
C353    C    0.776150    0.723850    0.538750    0.048000
O241    O    0.863450    0.636550    0.962250    -0.624000
H213    H    0.795385    0.704615    0.572065    0.024000
C354    C    0.538750    0.961250    0.776150    0.099000
O242    O    0.962250    0.537750    0.863450    -0.629000
H214    H    0.572065    0.927935    0.795385    0.019000
C355    C    0.723850    0.776150    0.961250    0.104000
O243    O    0.636550    0.863450    0.537750    -0.676000
H215    H    0.704615    0.795385    0.927935    0.021000
C356    C    0.961250    0.538750    0.723850    0.095000
O244    O    0.537750    0.962250    0.636550    -0.642000
H216    H    0.927935    0.572065    0.704615    0.018000
C357    C    0.723850    0.538750    0.776150    0.048000
O245    O    0.636550    0.962250    0.863450    -0.624000
H217    H    0.704615    0.572065    0.795385    0.024000
C358    C    0.961250    0.776150    0.538750    0.099000
O246    O    0.537750    0.863450    0.962250    -0.629000
H218    H    0.927935    0.795385    0.572065    0.019000
C359    C    0.776150    0.961250    0.723850    0.104000
O247    O    0.863450    0.537750    0.636550    -0.676000
H219    H    0.795385    0.927935    0.704615    0.021000
C360    C    0.538750    0.723850    0.961250    0.095000
O248    O    0.962250    0.636550    0.537750    -0.642000
H220    H    0.572065    0.704615    0.927935    0.018000
Zr43    Zr    0.938150    0.938150    0.561850    3.157000
Zr44    Zr    0.561850    0.561850    0.938150    3.153000
Zr45    Zr    0.561850    0.938150    0.938150    3.157000
Zr46    Zr    0.938150    0.561850    0.561850    3.153000
Zr47    Zr    0.938150    0.561850    0.938150    3.157000
Zr48    Zr    0.561850    0.938150    0.561850    3.153000
C361    C    0.843700    0.500000    0.656300    0.502000
C362    C    0.796700    0.500000    0.703300    -0.262000
C363    C    0.500000    0.843700    0.500000    0.454000
C364    C    0.500000    0.796700    0.500000    -0.303000
C365    C    0.656300    0.500000    0.843700    0.502000
C366    C    0.703300    0.500000    0.796700    -0.262000
C367    C    0.500000    0.656300    0.500000    0.478000
C368    C    0.500000    0.703300    0.500000    -0.303000
C369    C    0.656300    0.843700    0.500000    0.502000
C370    C    0.703300    0.796700    0.500000    -0.262000
C371    C    0.500000    0.500000    0.843700    0.454000
C372    C    0.500000    0.500000    0.796700    -0.303000
C373    C    0.843700    0.656300    0.500000    0.502000
C374    C    0.796700    0.703300    0.500000    -0.262000
C375    C    0.500000    0.500000    0.656300    0.478000
C376    C    0.500000    0.500000    0.703300    -0.303000
C377    C    0.500000    0.656300    0.843700    0.502000
C378    C    0.500000    0.703300    0.796700    -0.262000
C379    C    0.843700    0.500000    0.500000    0.454000
C380    C    0.796700    0.500000    0.500000    -0.303000
C381    C    0.500000    0.843700    0.656300    0.502000
C382    C    0.500000    0.796700    0.703300    -0.262000
C383    C    0.656300    0.500000    0.500000    0.478000
C384    C    0.703300    0.500000    0.500000    -0.303000
O249    O    0.893200    0.535600    0.535600    -1.164000
O250    O    0.535600    0.893200    0.535600    -1.164000
O251    O    0.535600    0.535600    0.893200    -1.164000
O252    O    0.535600    0.535600    0.535600    -1.176000
O253    O    0.964400    0.964400    0.606800    -1.578000
H221    H    0.953200    0.953200    0.640395    0.611000
O254    O    0.964400    0.964400    0.964400    -1.531000
H222    H    0.953200    0.953200    0.953200    0.616000
O255    O    0.606800    0.964400    0.964400    -1.578000
H223    H    0.640395    0.953200    0.953200    0.611000
O256    O    0.964400    0.606800    0.964400    -1.578000
H224    H    0.953200    0.640395    0.953200    0.611000

loop_
_geom_bond_atom_site_label_1
_geom_bond_atom_site_label_2
_geom_bond_distance
C1    H1    0.04301
C1    C21    0.07396
C1    C26    0.04844
O1    Zr1    0.10836
O1    C121    0.04696
C2    H2    0.05089
C2    C24    0.05230
C2    C76    0.05853
O2    Zr1    0.08211
O2    C219    0.05692
C3    H3    0.04301
C3    C23    0.07396
C3    C126    0.04844
O3    Zr2    0.10836
O3    C29    0.04696
C4    H4    0.05089
C4    C22    0.05230
C4    C224    0.05853
O4    Zr2    0.08211
O4    C79    0.05692
C5    H5    0.04301
C5    C17    0.07396
C5    C34    0.04844
O5    Zr3    0.10836
O5    C81    0.04696
C6    H6    0.05089
C6    C20    0.05230
C6    C228    0.05853
O6    Zr3    0.08211
O6    C131    0.05692
C7    H7    0.04301
C7    C19    0.07396
C7    C86    0.04844
O7    Zr4    0.10836
O7    C37    0.04696
C8    H8    0.05089
C8    C18    0.05230
C8    C136    0.05853
O8    Zr4    0.08211
O8    C231    0.05692
C9    H9    0.04301
C9    C13    0.07396
C9    C42    0.04844
O9    Zr5    0.10836
O9    C233    0.04696
C10    H10    0.05089
C10    C16    0.05230
C10    C140    0.05853
O10    Zr5    0.08211
O10    C91    0.05692
C11    H11    0.04301
C11    C15    0.07396
C11    C238    0.04844
O11    Zr6    0.10836
O11    C45    0.04696
C12    H12    0.05089
C12    C14    0.05230
C12    C96    0.05853
O12    Zr6    0.08211
O12    C143    0.05692
C13    H13    0.04301
C13    C46    0.04844
O13    Zr1    0.10836
O13    C237    0.04696
C14    H14    0.05089
C14    C92    0.05853
O14    Zr1    0.08211
O14    C139    0.05692
C15    H15    0.04301
C15    C234    0.04844
O15    Zr2    0.10836
O15    C41    0.04696
C16    H16    0.05089
C16    C144    0.05853
O16    Zr2    0.08211
O16    C95    0.05692
C17    H17    0.04301
C17    C38    0.04844
O17    Zr5    0.10836
O17    C85    0.04696
C18    H18    0.05089
C18    C132    0.05853
O18    Zr5    0.08211
O18    C227    0.05692
C19    H19    0.04301
C19    C82    0.04844
O19    Zr6    0.10836
O19    C33    0.04696
C20    H20    0.05089
C20    C232    0.05853
O20    Zr6    0.08211
O20    C135    0.05692
C21    H21    0.04301
C21    C30    0.04844
O21    Zr3    0.10836
O21    C125    0.04696
C22    H22    0.05089
C22    C220    0.05853
O22    Zr3    0.08211
O22    C75    0.05692
C23    H23    0.04301
C23    C122    0.04844
O23    Zr4    0.10836
O23    C25    0.04696
C24    H24    0.05089
C24    C80    0.05853
O24    Zr4    0.08211
O24    C223    0.05692
Zr1    O29    0.05830
Zr1    O62    0.10428
Zr1    O89    0.11048
Zr1    O154    0.11048
Zr2    O27    0.05830
Zr2    O60    0.10428
Zr2    O95    0.11048
Zr2    O160    0.11048
Zr3    O31    0.05830
Zr3    O58    0.11048
Zr3    O91    0.11048
Zr3    O158    0.10428
Zr4    O25    0.05830
Zr4    O64    0.11048
Zr4    O93    0.11048
Zr4    O156    0.10428
Zr5    O32    0.05830
Zr5    O57    0.11048
Zr5    O94    0.10428
Zr5    O155    0.11048
Zr6    O26    0.05830
Zr6    O63    0.11048
Zr6    O92    0.10428
Zr6    O157    0.11048
C25    C26    0.06647
C25    O65    0.04696
C26    C119    0.04844
C27    C28    0.04700
C27    O54    0.05692
C27    O130    0.05692
C28    C50    0.05853
C28    C214    0.05853
C29    C30    0.06647
C29    O85    0.04696
C30    C99    0.04844
C31    C32    0.04700
C31    O36    0.05692
C31    O152    0.05692
C32    C72    0.05853
C32    C196    0.05853
C33    C34    0.06647
C33    O37    0.04696
C34    C67    0.04844
C35    C36    0.04700
C35    O70    0.05692
C35    O146    0.05692
C36    C114    0.05853
C36    C198    0.05853
C37    C38    0.06647
C37    O49    0.04696
C38    C55    0.04844
C39    C40    0.04700
C39    O84    0.05692
C39    O136    0.05692
C40    C104    0.05853
C40    C212    0.05853
C41    C42    0.06647
C41    O137    0.04696
C42    C207    0.04844
C43    C44    0.04700
C43    O42    0.05692
C43    O78    0.05692
C44    C62    0.05853
C44    C106    0.05853
C45    C46    0.06647
C45    O141    0.04696
C46    C203    0.04844
C47    C48    0.04700
C47    O48    0.05692
C47    O76    0.05692
C48    C60    0.05853
C48    C112    0.05853
O25    Zr11    0.11048
O25    Zr13    0.11048
O26    Zr9    0.11048
O26    Zr25    0.11048
O27    Zr15    0.11048
O27    Zr29    0.11048
O28    Zr8    0.10428
O28    Zr18    0.10428
O28    Zr28    0.10428
O29    H25    0.03714
O29    Zr16    0.11048
O29    Zr30    0.11048
O30    H26    0.01940
O30    Zr7    0.10428
O30    Zr17    0.10428
O30    Zr27    0.10428
O31    H27    0.03714
O31    Zr12    0.11048
O31    Zr14    0.11048
O32    H28    0.03714
O32    Zr10    0.11048
O32    Zr26    0.11048
C49    H29    0.04301
C49    C69    0.07396
C49    C74    0.04844
O33    Zr7    0.10836
O33    C169    0.04696
C50    H30    0.05089
C50    C72    0.05230
O34    Zr7    0.08211
O34    C267    0.05692
C51    H31    0.04301
C51    C71    0.07396
C51    C174    0.04844
O35    Zr8    0.10836
O35    C77    0.04696
C52    H32    0.05089
C52    C70    0.05230
C52    C272    0.05853
O36    Zr8    0.08211
C53    H33    0.04301
C53    C65    0.07396
C53    C82    0.04844
O37    Zr9    0.10836
C54    H34    0.05089
C54    C68    0.05230
C54    C276    0.05853
O38    Zr9    0.08211
O38    C179    0.05692
C55    H35    0.04301
C55    C67    0.07396
O39    Zr10    0.10836
O39    C85    0.04696
C56    H36    0.05089
C56    C66    0.05230
C56    C184    0.05853
O40    Zr10    0.08211
O40    C279    0.05692
C57    H37    0.04301
C57    C61    0.07396
C57    C90    0.04844
O41    Zr11    0.10836
O41    C281    0.04696
C58    H38    0.05089
C58    C64    0.05230
C58    C188    0.05853
O42    Zr11    0.08211
C59    H39    0.04301
C59    C63    0.07396
C59    C286    0.04844
O43    Zr12    0.10836
O43    C93    0.04696
C60    H40    0.05089
C60    C62    0.05230
O44    Zr12    0.08211
O44    C191    0.05692
C61    H41    0.04301
C61    C94    0.04844
O45    Zr7    0.10836
O45    C285    0.04696
C62    H42    0.05089
O46    Zr7    0.08211
O46    C187    0.05692
C63    H43    0.04301
C63    C282    0.04844
O47    Zr8    0.10836
O47    C89    0.04696
C64    H44    0.05089
C64    C192    0.05853
O48    Zr8    0.08211
C65    H45    0.04301
C65    C86    0.04844
O49    Zr11    0.10836
C66    H46    0.05089
C66    C180    0.05853
O50    Zr11    0.08211
O50    C275    0.05692
C67    H47    0.04301
O51    Zr12    0.10836
O51    C81    0.04696
C68    H48    0.05089
C68    C280    0.05853
O52    Zr12    0.08211
O52    C183    0.05692
C69    H49    0.04301
C69    C78    0.04844
O53    Zr9    0.10836
O53    C173    0.04696
C70    H50    0.05089
C70    C268    0.05853
O54    Zr9    0.08211
C71    H51    0.04301
C71    C170    0.04844
O55    Zr10    0.10836
O55    C73    0.04696
C72    H52    0.05089
O56    Zr10    0.08211
O56    C271    0.05692
Zr7    O61    0.05830
Zr7    O121    0.11048
Zr7    O186    0.11048
Zr8    O59    0.05830
Zr8    O127    0.11048
Zr8    O192    0.11048
Zr9    O63    0.05830
Zr9    O123    0.11048
Zr9    O190    0.10428
Zr10    O57    0.05830
Zr10    O125    0.11048
Zr10    O188    0.10428
Zr11    O64    0.05830
Zr11    O126    0.10428
Zr11    O187    0.11048
Zr12    O58    0.05830
Zr12    O124    0.10428
Zr12    O189    0.11048
C73    C74    0.06647
C73    O97    0.04696
C74    C167    0.04844
C75    C76    0.04700
C75    O162    0.05692
C76    C262    0.05853
C77    C78    0.06647
C77    O117    0.04696
C78    C147    0.04844
C79    C80    0.04700
C79    O184    0.05692
C80    C244    0.05853
C81    C82    0.06647
C83    C84    0.04700
C83    O102    0.05692
C83    O178    0.05692
C84    C162    0.05853
C84    C246    0.05853
C85    C86    0.06647
C87    C88    0.04700
C87    O116    0.05692
C87    O168    0.05692
C88    C152    0.05853
C88    C260    0.05853
C89    C90    0.06647
C89    O169    0.04696
C90    C255    0.04844
C91    C92    0.04700
C91    O110    0.05692
C92    C154    0.05853
C93    C94    0.06647
C93    O173    0.04696
C94    C251    0.04844
C95    C96    0.04700
C95    O108    0.05692
C96    C160    0.05853
O57    Zr19    0.11048
O58    Zr31    0.11048
O59    Zr21    0.11048
O59    Zr35    0.11048
O60    Zr24    0.10428
O60    Zr34    0.10428
O61    H53    0.03714
O61    Zr22    0.11048
O61    Zr36    0.11048
O62    H54    0.01940
O62    Zr23    0.10428
O62    Zr33    0.10428
O63    H55    0.03714
O63    Zr20    0.11048
O64    H56    0.03714
O64    Zr32    0.11048
C97    H57    0.04301
C97    C117    0.07396
C97    C122    0.04844
O65    Zr13    0.10836
C98    H58    0.05089
C98    C120    0.05230
C98    C172    0.05853
O66    Zr13    0.08211
O66    C315    0.05692
C99    H59    0.04301
C99    C119    0.07396
O67    Zr14    0.10836
O67    C125    0.04696
C100    H60    0.05089
C100    C118    0.05230
C100    C320    0.05853
O68    Zr14    0.08211
O68    C175    0.05692
C101    H61    0.04301
C101    C113    0.07396
C101    C130    0.04844
O69    Zr15    0.10836
O69    C177    0.04696
C102    H62    0.05089
C102    C116    0.05230
C102    C324    0.05853
O70    Zr15    0.08211
C103    H63    0.04301
C103    C115    0.07396
C103    C182    0.04844
O71    Zr16    0.10836
O71    C133    0.04696
C104    H64    0.05089
C104    C114    0.05230
O72    Zr16    0.08211
O72    C327    0.05692
C105    H65    0.04301
C105    C109    0.07396
C105    C138    0.04844
O73    Zr17    0.10836
O73    C329    0.04696
C106    H66    0.05089
C106    C112    0.05230
O74    Zr17    0.08211
O74    C187    0.05692
C107    H67    0.04301
C107    C111    0.07396
C107    C334    0.04844
O75    Zr18    0.10836
O75    C141    0.04696
C108    H68    0.05089
C108    C110    0.05230
C108    C192    0.05853
O76    Zr18    0.08211
C109    H69    0.04301
C109    C142    0.04844
O77    Zr13    0.10836
O77    C333    0.04696
C110    H70    0.05089
C110    C188    0.05853
O78    Zr13    0.08211
C111    H71    0.04301
C111    C330    0.04844
O79    Zr14    0.10836
O79    C137    0.04696
C112    H72    0.05089
O80    Zr14    0.08211
O80    C191    0.05692
C113    H73    0.04301
C113    C134    0.04844
O81    Zr17    0.10836
O81    C181    0.04696
C114    H74    0.05089
O82    Zr17    0.08211
O82    C323    0.05692
C115    H75    0.04301
C115    C178    0.04844
O83    Zr18    0.10836
O83    C129    0.04696
C116    H76    0.05089
C116    C328    0.05853
O84    Zr18    0.08211
C117    H77    0.04301
C117    C126    0.04844
O85    Zr15    0.10836
C118    H78    0.05089
C118    C316    0.05853
O86    Zr15    0.08211
O86    C171    0.05692
C119    H79    0.04301
O87    Zr16    0.10836
O87    C121    0.04696
C120    H80    0.05089
C120    C176    0.05853
O88    Zr16    0.08211
O88    C319    0.05692
Zr13    O93    0.05830
Zr13    O126    0.10428
Zr13    O218    0.11048
Zr14    O91    0.05830
Zr14    O124    0.10428
Zr14    O224    0.11048
Zr15    O95    0.05830
Zr15    O122    0.11048
Zr15    O222    0.10428
Zr16    O89    0.05830
Zr16    O128    0.11048
Zr16    O220    0.10428
Zr17    O96    0.05830
Zr17    O121    0.11048
Zr17    O219    0.11048
Zr18    O90    0.05830
Zr18    O127    0.11048
Zr18    O221    0.11048
C121    C122    0.06647
C123    C124    0.04700
C123    O118    0.05692
C123    O194    0.05692
C124    C146    0.05853
C124    C310    0.05853
C125    C126    0.06647
C127    C128    0.04700
C127    O100    0.05692
C127    O216    0.05692
C128    C168    0.05853
C128    C292    0.05853
C129    C130    0.06647
C129    O101    0.04696
C130    C163    0.04844
C131    C132    0.04700
C131    O210    0.05692
C132    C294    0.05853
C133    C134    0.06647
C133    O113    0.04696
C134    C151    0.04844
C135    C136    0.04700
C135    O200    0.05692
C136    C308    0.05853
C137    C138    0.06647
C137    O201    0.04696
C138    C303    0.04844
C139    C140    0.04700
C139    O106    0.05692
C140    C158    0.05853
C141    C142    0.06647
C141    O205    0.04696
C142    C299    0.04844
C143    C144    0.04700
C143    O112    0.05692
C144    C156    0.05853
O89    Zr23    0.11048
O90    Zr21    0.11048
O90    Zr37    0.11048
O91    Zr41    0.11048
O92    Zr20    0.10428
O92    Zr40    0.10428
O93    H81    0.03714
O93    Zr42    0.11048
O94    H82    0.01940
O94    Zr19    0.10428
O94    Zr39    0.10428
O95    H83    0.03714
O95    Zr24    0.11048
O96    H84    0.03714
O96    Zr22    0.11048
O96    Zr38    0.11048
C145    H85    0.04301
C145    C165    0.07396
C145    C170    0.04844
O97    Zr19    0.10836
C146    H86    0.05089
C146    C168    0.05230
O98    Zr19    0.08211
O98    C363    0.05692
C147    H87    0.04301
C147    C167    0.07396
O99    Zr20    0.10836
O99    C173    0.04696
C148    H88    0.05089
C148    C166    0.05230
C148    C368    0.05853
O100    Zr20    0.08211
C149    H89    0.04301
C149    C161    0.07396
C149    C178    0.04844
O101    Zr21    0.10836
C150    H90    0.05089
C150    C164    0.05230
C150    C372    0.05853
O102    Zr21    0.08211
C151    H91    0.04301
C151    C163    0.07396
O103    Zr22    0.10836
O103    C181    0.04696
C152    H92    0.05089
C152    C162    0.05230
O104    Zr22    0.08211
O104    C375    0.05692
C153    H93    0.04301
C153    C157    0.07396
C153    C186    0.04844
O105    Zr23    0.10836
O105    C377    0.04696
C154    H94    0.05089
C154    C160    0.05230
O106    Zr23    0.08211
C155    H95    0.04301
C155    C159    0.07396
C155    C382    0.04844
O107    Zr24    0.10836
O107    C189    0.04696
C156    H96    0.05089
C156    C158    0.05230
O108    Zr24    0.08211
C157    H97    0.04301
C157    C190    0.04844
O109    Zr19    0.10836
O109    C381    0.04696
C158    H98    0.05089
O110    Zr19    0.08211
C159    H99    0.04301
C159    C378    0.04844
O111    Zr20    0.10836
O111    C185    0.04696
C160    H100    0.05089
O112    Zr20    0.08211
C161    H101    0.04301
C161    C182    0.04844
O113    Zr23    0.10836
C162    H102    0.05089
O114    Zr23    0.08211
O114    C371    0.05692
C163    H103    0.04301
O115    Zr24    0.10836
O115    C177    0.04696
C164    H104    0.05089
C164    C376    0.05853
O116    Zr24    0.08211
C165    H105    0.04301
C165    C174    0.04844
O117    Zr21    0.10836
C166    H106    0.05089
C166    C364    0.05853
O118    Zr21    0.08211
C167    H107    0.04301
O119    Zr22    0.10836
O119    C169    0.04696
C168    H108    0.05089
O120    Zr22    0.08211
O120    C367    0.05692
Zr19    O125    0.05830
Zr19    O250    0.11048
Zr20    O123    0.05830
Zr20    O256    0.11048
Zr21    O127    0.05830
Zr21    O254    0.10428
Zr22    O121    0.05830
Zr22    O252    0.10428
Zr23    O128    0.05830
Zr23    O251    0.11048
Zr24    O122    0.05830
Zr24    O253    0.11048
C169    C170    0.06647
C171    C172    0.04700
C171    O226    0.05692
C172    C358    0.05853
C173    C174    0.06647
C175    C176    0.04700
C175    O248    0.05692
C176    C340    0.05853
C177    C178    0.06647
C179    C180    0.04700
C179    O242    0.05692
C180    C342    0.05853
C181    C182    0.06647
C183    C184    0.04700
C183    O232    0.05692
C184    C356    0.05853
C185    C186    0.06647
C185    O233    0.04696
C186    C351    0.04844
C187    C188    0.04700
C189    C190    0.06647
C189    O237    0.04696
C190    C347    0.04844
C191    C192    0.04700
O122    Zr43    0.11048
O123    Zr47    0.11048
O124    Zr46    0.10428
O125    H109    0.03714
O125    Zr48    0.11048
O126    H110    0.01940
O126    Zr45    0.10428
O127    H111    0.03714
O128    H112    0.03714
O128    Zr44    0.11048
C193    H113    0.04301
C193    C213    0.07396
C193    C218    0.04844
O129    Zr25    0.10836
O129    C313    0.04696
C194    H114    0.05089
C194    C216    0.05230
C194    C268    0.05853
O130    Zr25    0.08211
C195    H115    0.04301
C195    C215    0.07396
C195    C318    0.04844
O131    Zr26    0.10836
O131    C221    0.04696
C196    H116    0.05089
C196    C214    0.05230
O132    Zr26    0.08211
O132    C271    0.05692
C197    H117    0.04301
C197    C209    0.07396
C197    C226    0.04844
O133    Zr27    0.10836
O133    C273    0.04696
C198    H118    0.05089
C198    C212    0.05230
O134    Zr27    0.08211
O134    C323    0.05692
C199    H119    0.04301
C199    C211    0.07396
C199    C278    0.04844
O135    Zr28    0.10836
O135    C229    0.04696
C200    H120    0.05089
C200    C210    0.05230
C200    C328    0.05853
O136    Zr28    0.08211
C201    H121    0.04301
C201    C205    0.07396
C201    C234    0.04844
O137    Zr29    0.10836
C202    H122    0.05089
C202    C208    0.05230
C202    C332    0.05853
O138    Zr29    0.08211
O138    C283    0.05692
C203    H123    0.04301
C203    C207    0.07396
O139    Zr30    0.10836
O139    C237    0.04696
C204    H124    0.05089
C204    C206    0.05230
C204    C288    0.05853
O140    Zr30    0.08211
O140    C335    0.05692
C205    H125    0.04301
C205    C238    0.04844
O141    Zr25    0.10836
C206    H126    0.05089
C206    C284    0.05853
O142    Zr25    0.08211
O142    C331    0.05692
C207    H127    0.04301
O143    Zr26    0.10836
O143    C233    0.04696
C208    H128    0.05089
C208    C336    0.05853
O144    Zr26    0.08211
O144    C287    0.05692
C209    H129    0.04301
C209    C230    0.04844
O145    Zr29    0.10836
O145    C277    0.04696
C210    H130    0.05089
C210    C324    0.05853
O146    Zr29    0.08211
C211    H131    0.04301
C211    C274    0.04844
O147    Zr30    0.10836
O147    C225    0.04696
C212    H132    0.05089
O148    Zr30    0.08211
O148    C327    0.05692
C213    H133    0.04301
C213    C222    0.04844
O149    Zr27    0.10836
O149    C317    0.04696
C214    H134    0.05089
O150    Zr27    0.08211
O150    C267    0.05692
C215    H135    0.04301
C215    C314    0.04844
O151    Zr28    0.10836
O151    C217    0.04696
C216    H136    0.05089
C216    C272    0.05853
O152    Zr28    0.08211
Zr25    O157    0.05830
Zr25    O190    0.10428
Zr25    O217    0.11048
Zr26    O155    0.05830
Zr26    O188    0.10428
Zr26    O223    0.11048
Zr27    O159    0.05830
Zr27    O186    0.11048
Zr27    O219    0.11048
Zr28    O153    0.05830
Zr28    O192    0.11048
Zr28    O221    0.11048
Zr29    O160    0.05830
Zr29    O185    0.11048
Zr29    O222    0.10428
Zr30    O154    0.05830
Zr30    O191    0.11048
Zr30    O220    0.10428
C217    C218    0.06647
C217    O193    0.04696
C218    C311    0.04844
C219    C220    0.04700
C219    O182    0.05692
C220    C242    0.05853
C221    C222    0.06647
C221    O213    0.04696
C222    C291    0.04844
C223    C224    0.04700
C223    O164    0.05692
C224    C264    0.05853
C225    C226    0.06647
C225    O165    0.04696
C226    C259    0.04844
C227    C228    0.04700
C227    O198    0.05692
C228    C306    0.05853
C229    C230    0.06647
C229    O177    0.04696
C230    C247    0.04844
C231    C232    0.04700
C231    O212    0.05692
C232    C296    0.05853
C233    C234    0.06647
C235    C236    0.04700
C235    O170    0.05692
C235    O206    0.05692
C236    C254    0.05853
C236    C298    0.05853
C237    C238    0.06647
C239    C240    0.04700
C239    O176    0.05692
C239    O204    0.05692
C240    C252    0.05853
C240    C304    0.05853
O153    Zr35    0.11048
O153    Zr37    0.11048
O154    Zr33    0.11048
O155    Zr39    0.11048
O156    Zr32    0.10428
O156    Zr42    0.10428
O157    H137    0.03714
O157    Zr40    0.11048
O158    H138    0.01940
O158    Zr31    0.10428
O158    Zr41    0.10428
O159    H139    0.03714
O159    Zr36    0.11048
O159    Zr38    0.11048
O160    H140    0.03714
O160    Zr34    0.11048
C241    H141    0.04301
C241    C261    0.07396
C241    C266    0.04844
O161    Zr31    0.10836
O161    C361    0.04696
C242    H142    0.05089
C242    C264    0.05230
O162    Zr31    0.08211
C243    H143    0.04301
C243    C263    0.07396
C243    C366    0.04844
O163    Zr32    0.10836
O163    C269    0.04696
C244    H144    0.05089
C244    C262    0.05230
O164    Zr32    0.08211
C245    H145    0.04301
C245    C257    0.07396
C245    C274    0.04844
O165    Zr33    0.10836
C246    H146    0.05089
C246    C260    0.05230
O166    Zr33    0.08211
O166    C371    0.05692
C247    H147    0.04301
C247    C259    0.07396
O167    Zr34    0.10836
O167    C277    0.04696
C248    H148    0.05089
C248    C258    0.05230
C248    C376    0.05853
O168    Zr34    0.08211
C249    H149    0.04301
C249    C253    0.07396
C249    C282    0.04844
O169    Zr35    0.10836
C250    H150    0.05089
C250    C256    0.05230
C250    C380    0.05853
O170    Zr35    0.08211
C251    H151    0.04301
C251    C255    0.07396
O171    Zr36    0.10836
O171    C285    0.04696
C252    H152    0.05089
C252    C254    0.05230
O172    Zr36    0.08211
O172    C383    0.05692
C253    H153    0.04301
C253    C286    0.04844
O173    Zr31    0.10836
C254    H154    0.05089
O174    Zr31    0.08211
O174    C379    0.05692
C255    H155    0.04301
O175    Zr32    0.10836
O175    C281    0.04696
C256    H156    0.05089
C256    C384    0.05853
O176    Zr32    0.08211
C257    H157    0.04301
C257    C278    0.04844
O177    Zr35    0.10836
C258    H158    0.05089
C258    C372    0.05853
O178    Zr35    0.08211
C259    H159    0.04301
O179    Zr36    0.10836
O179    C273    0.04696
C260    H160    0.05089
O180    Zr36    0.08211
O180    C375    0.05692
C261    H161    0.04301
C261    C270    0.04844
O181    Zr33    0.10836
O181    C365    0.04696
C262    H162    0.05089
O182    Zr33    0.08211
C263    H163    0.04301
C263    C362    0.04844
O183    Zr34    0.10836
O183    C265    0.04696
C264    H164    0.05089
O184    Zr34    0.08211
Zr31    O189    0.05830
Zr31    O249    0.11048
Zr32    O187    0.05830
Zr32    O255    0.11048
Zr33    O191    0.05830
Zr33    O251    0.11048
Zr34    O185    0.05830
Zr34    O253    0.11048
Zr35    O192    0.05830
Zr35    O254    0.10428
Zr36    O186    0.05830
Zr36    O252    0.10428
C265    C266    0.06647
C265    O225    0.04696
C266    C359    0.04844
C267    C268    0.04700
C269    C270    0.06647
C269    O245    0.04696
C270    C339    0.04844
C271    C272    0.04700
C273    C274    0.06647
C275    C276    0.04700
C275    O230    0.05692
C276    C354    0.05853
C277    C278    0.06647
C279    C280    0.04700
C279    O244    0.05692
C280    C344    0.05853
C281    C282    0.06647
C283    C284    0.04700
C283    O238    0.05692
C284    C346    0.05853
C285    C286    0.06647
C287    C288    0.04700
C287    O236    0.05692
C288    C352    0.05853
O185    Zr43    0.11048
O187    Zr45    0.11048
O188    Zr48    0.10428
O189    H165    0.03714
O189    Zr46    0.11048
O190    H166    0.01940
O190    Zr47    0.10428
O191    H167    0.03714
O191    Zr44    0.11048
O192    H168    0.03714
C289    H169    0.04301
C289    C309    0.07396
C289    C314    0.04844
O193    Zr37    0.10836
C290    H170    0.05089
C290    C312    0.05230
C290    C364    0.05853
O194    Zr37    0.08211
C291    H171    0.04301
C291    C311    0.07396
O195    Zr38    0.10836
O195    C317    0.04696
C292    H172    0.05089
C292    C310    0.05230
O196    Zr38    0.08211
O196    C367    0.05692
C293    H173    0.04301
C293    C305    0.07396
C293    C322    0.04844
O197    Zr39    0.10836
O197    C369    0.04696
C294    H174    0.05089
C294    C308    0.05230
O198    Zr39    0.08211
C295    H175    0.04301
C295    C307    0.07396
C295    C374    0.04844
O199    Zr40    0.10836
O199    C325    0.04696
C296    H176    0.05089
C296    C306    0.05230
O200    Zr40    0.08211
C297    H177    0.04301
C297    C301    0.07396
C297    C330    0.04844
O201    Zr41    0.10836
C298    H178    0.05089
C298    C304    0.05230
O202    Zr41    0.08211
O202    C379    0.05692
C299    H179    0.04301
C299    C303    0.07396
O203    Zr42    0.10836
O203    C333    0.04696
C300    H180    0.05089
C300    C302    0.05230
C300    C384    0.05853
O204    Zr42    0.08211
C301    H181    0.04301
C301    C334    0.04844
O205    Zr37    0.10836
C302    H182    0.05089
C302    C380    0.05853
O206    Zr37    0.08211
C303    H183    0.04301
O207    Zr38    0.10836
O207    C329    0.04696
C304    H184    0.05089
O208    Zr38    0.08211
O208    C383    0.05692
C305    H185    0.04301
C305    C326    0.04844
O209    Zr41    0.10836
O209    C373    0.04696
C306    H186    0.05089
O210    Zr41    0.08211
C307    H187    0.04301
C307    C370    0.04844
O211    Zr42    0.10836
O211    C321    0.04696
C308    H188    0.05089
O212    Zr42    0.08211
C309    H189    0.04301
C309    C318    0.04844
O213    Zr39    0.10836
C310    H190    0.05089
O214    Zr39    0.08211
O214    C363    0.05692
C311    H191    0.04301
O215    Zr40    0.10836
O215    C313    0.04696
C312    H192    0.05089
C312    C368    0.05853
O216    Zr40    0.08211
Zr37    O221    0.05830
Zr37    O254    0.10428
Zr38    O219    0.05830
Zr38    O252    0.10428
Zr39    O223    0.05830
Zr39    O250    0.11048
Zr40    O217    0.05830
Zr40    O256    0.11048
Zr41    O224    0.05830
Zr41    O249    0.11048
Zr42    O218    0.05830
Zr42    O255    0.11048
C313    C314    0.06647
C315    C316    0.04700
C315    O246    0.05692
C316    C338    0.05853
C317    C318    0.06647
C319    C320    0.04700
C319    O228    0.05692
C320    C360    0.05853
C321    C322    0.06647
C321    O229    0.04696
C322    C355    0.04844
C323    C324    0.04700
C325    C326    0.06647
C325    O241    0.04696
C326    C343    0.04844
C327    C328    0.04700
C329    C330    0.06647
C331    C332    0.04700
C331    O234    0.05692
C332    C350    0.05853
C333    C334    0.06647
C335    C336    0.04700
C335    O240    0.05692
C336    C348    0.05853
O217    Zr47    0.11048
O218    Zr45    0.11048
O220    Zr44    0.10428
O221    H193    0.03714
O222    H194    0.01940
O222    Zr43    0.10428
O223    H195    0.03714
O223    Zr48    0.11048
O224    H196    0.03714
O224    Zr46    0.11048
C337    H197    0.04301
C337    C357    0.07396
C337    C362    0.04844
O225    Zr43    0.10836
C338    H198    0.05089
C338    C360    0.05230
O226    Zr43    0.08211
C339    H199    0.04301
C339    C359    0.07396
O227    Zr44    0.10836
O227    C365    0.04696
C340    H200    0.05089
C340    C358    0.05230
O228    Zr44    0.08211
C341    H201    0.04301
C341    C353    0.07396
C341    C370    0.04844
O229    Zr45    0.10836
C342    H202    0.05089
C342    C356    0.05230
O230    Zr45    0.08211
C343    H203    0.04301
C343    C355    0.07396
O231    Zr46    0.10836
O231    C373    0.04696
C344    H204    0.05089
C344    C354    0.05230
O232    Zr46    0.08211
C345    H205    0.04301
C345    C349    0.07396
C345    C378    0.04844
O233    Zr47    0.10836
C346    H206    0.05089
C346    C352    0.05230
O234    Zr47    0.08211
C347    H207    0.04301
C347    C351    0.07396
O235    Zr48    0.10836
O235    C381    0.04696
C348    H208    0.05089
C348    C350    0.05230
O236    Zr48    0.08211
C349    H209    0.04301
C349    C382    0.04844
O237    Zr43    0.10836
C350    H210    0.05089
O238    Zr43    0.08211
C351    H211    0.04301
O239    Zr44    0.10836
O239    C377    0.04696
C352    H212    0.05089
O240    Zr44    0.08211
C353    H213    0.04301
C353    C374    0.04844
O241    Zr47    0.10836
C354    H214    0.05089
O242    Zr47    0.08211
C355    H215    0.04301
O243    Zr48    0.10836
O243    C369    0.04696
C356    H216    0.05089
O244    Zr48    0.08211
C357    H217    0.04301
C357    C366    0.04844
O245    Zr45    0.10836
C358    H218    0.05089
O246    Zr45    0.08211
C359    H219    0.04301
O247    Zr46    0.10836
O247    C361    0.04696
C360    H220    0.05089
O248    Zr46    0.08211
Zr43    O253    0.05830
Zr44    O251    0.05830
Zr45    O255    0.05830
Zr46    O249    0.05830
Zr47    O256    0.05830
Zr48    O250    0.05830
C361    C362    0.06647
C363    C364    0.04700
C365    C366    0.06647
C367    C368    0.04700
C369    C370    0.06647
C371    C372    0.04700
C373    C374    0.06647
C375    C376    0.04700
C377    C378    0.06647
C379    C380    0.04700
C381    C382    0.06647
C383    C384    0.04700
O253    H221    0.03714
O254    H222    0.01940
O255    H223    0.03714
O256    H224    0.03714
