data_new_xtal_PM
_symmetry_space_group_name_H-M    'P1'
_cell_length_a    25.832000
_cell_length_b    25.832000
_cell_length_c    25.832000
_cell_angle_alpha    90.000000
_cell_angle_beta    90.000000
_cell_angle_gamma    90.000000
_symmetry_Int_Tables_number 1

loop_
_symmetry_equiv_pos_as_xyz
'x,y,z'

loop_
_atom_site_label
_atom_site_type_symbol
_atom_site_fract_x
_atom_site_fract_y
_atom_site_fract_z
Zn1    Zn    0.293380    0.206620    0.206620
Zn2    Zn    0.706620    0.793380    0.206620
Zn3    Zn    0.706620    0.206620    0.793380
Zn4    Zn    0.293380    0.793380    0.793380
Zn5    Zn    0.206620    0.293380    0.206620
Zn6    Zn    0.206620    0.706620    0.793380
Zn7    Zn    0.793380    0.706620    0.206620
Zn8    Zn    0.793380    0.293380    0.793380
Zn9    Zn    0.206620    0.206620    0.293380
Zn10    Zn    0.793380    0.206620    0.706620
Zn11    Zn    0.206620    0.793380    0.706620
Zn12    Zn    0.793380    0.793380    0.293380
Zn13    Zn    0.206620    0.293380    0.793380
Zn14    Zn    0.793380    0.706620    0.793380
Zn15    Zn    0.206620    0.706620    0.206620
Zn16    Zn    0.793380    0.293380    0.206620
Zn17    Zn    0.293380    0.206620    0.793380
Zn18    Zn    0.706620    0.206620    0.206620
Zn19    Zn    0.706620    0.793380    0.793380
Zn20    Zn    0.293380    0.793380    0.206620
Zn21    Zn    0.206620    0.206620    0.706620
Zn22    Zn    0.206620    0.793380    0.293380
Zn23    Zn    0.793380    0.206620    0.293380
Zn24    Zn    0.793380    0.793380    0.706620
Zn25    Zn    0.293380    0.706620    0.706620
Zn26    Zn    0.706620    0.293380    0.706620
Zn27    Zn    0.706620    0.706620    0.293380
Zn28    Zn    0.293380    0.293380    0.293380
Zn29    Zn    0.293380    0.706620    0.293380
Zn30    Zn    0.706620    0.706620    0.706620
Zn31    Zn    0.706620    0.293380    0.293380
Zn32    Zn    0.293380    0.293380    0.706620
O1    O    0.250000    0.250000    0.250000
O2    O    0.750000    0.750000    0.250000
O3    O    0.750000    0.250000    0.750000
O4    O    0.250000    0.750000    0.750000
O5    O    0.250000    0.250000    0.750000
O6    O    0.750000    0.750000    0.750000
O7    O    0.250000    0.750000    0.250000
O8    O    0.750000    0.250000    0.250000
O9    O    0.281870    0.218130    0.134000
O10    O    0.718130    0.781870    0.134000
O11    O    0.718130    0.218130    0.866000
O12    O    0.281870    0.781870    0.866000
O13    O    0.134000    0.281870    0.218130
O14    O    0.134000    0.718130    0.781870
O15    O    0.866000    0.718130    0.218130
O16    O    0.866000    0.281870    0.781870
O17    O    0.218130    0.134000    0.281870
O18    O    0.781870    0.134000    0.718130
O19    O    0.218130    0.866000    0.718130
O20    O    0.781870    0.866000    0.281870
O21    O    0.218130    0.281870    0.866000
O22    O    0.781870    0.718130    0.866000
O23    O    0.218130    0.718130    0.134000
O24    O    0.781870    0.281870    0.134000
O25    O    0.281870    0.134000    0.781870
O26    O    0.718130    0.134000    0.218130
O27    O    0.718130    0.866000    0.781870
O28    O    0.281870    0.866000    0.218130
O29    O    0.134000    0.218130    0.718130
O30    O    0.134000    0.781870    0.281870
O31    O    0.866000    0.218130    0.281870
O32    O    0.866000    0.781870    0.718130
O33    O    0.281870    0.718130    0.634000
O34    O    0.718130    0.281870    0.634000
O35    O    0.718130    0.718130    0.366000
O36    O    0.281870    0.281870    0.366000
O37    O    0.134000    0.781870    0.718130
O38    O    0.134000    0.218130    0.281870
O39    O    0.866000    0.218130    0.718130
O40    O    0.866000    0.781870    0.281870
O41    O    0.218130    0.634000    0.781870
O42    O    0.781870    0.634000    0.218130
O43    O    0.218130    0.366000    0.218130
O44    O    0.781870    0.366000    0.781870
O45    O    0.218130    0.781870    0.366000
O46    O    0.781870    0.218130    0.366000
O47    O    0.218130    0.218130    0.634000
O48    O    0.781870    0.781870    0.634000
O49    O    0.281870    0.634000    0.281870
O50    O    0.718130    0.634000    0.718130
O51    O    0.718130    0.366000    0.281870
O52    O    0.281870    0.366000    0.718130
O53    O    0.134000    0.718130    0.218130
O54    O    0.134000    0.281870    0.781870
O55    O    0.866000    0.718130    0.781870
O56    O    0.866000    0.281870    0.218130
O57    O    0.781870    0.218130    0.634000
O58    O    0.218130    0.781870    0.634000
O59    O    0.218130    0.218130    0.366000
O60    O    0.781870    0.781870    0.366000
O61    O    0.634000    0.281870    0.718130
O62    O    0.634000    0.718130    0.281870
O63    O    0.366000    0.718130    0.718130
O64    O    0.366000    0.281870    0.281870
O65    O    0.718130    0.134000    0.781870
O66    O    0.281870    0.134000    0.218130
O67    O    0.718130    0.866000    0.218130
O68    O    0.281870    0.866000    0.781870
O69    O    0.718130    0.281870    0.366000
O70    O    0.281870    0.718130    0.366000
O71    O    0.718130    0.718130    0.634000
O72    O    0.281870    0.281870    0.634000
O73    O    0.781870    0.134000    0.281870
O74    O    0.218130    0.134000    0.718130
O75    O    0.218130    0.866000    0.281870
O76    O    0.781870    0.866000    0.718130
O77    O    0.634000    0.218130    0.218130
O78    O    0.634000    0.781870    0.781870
O79    O    0.366000    0.218130    0.781870
O80    O    0.366000    0.781870    0.218130
O81    O    0.781870    0.718130    0.134000
O82    O    0.218130    0.281870    0.134000
O83    O    0.218130    0.718130    0.866000
O84    O    0.781870    0.281870    0.866000
O85    O    0.634000    0.781870    0.218130
O86    O    0.634000    0.218130    0.781870
O87    O    0.366000    0.218130    0.218130
O88    O    0.366000    0.781870    0.781870
O89    O    0.718130    0.634000    0.281870
O90    O    0.281870    0.634000    0.718130
O91    O    0.718130    0.366000    0.718130
O92    O    0.281870    0.366000    0.281870
O93    O    0.718130    0.781870    0.866000
O94    O    0.281870    0.218130    0.866000
O95    O    0.718130    0.218130    0.134000
O96    O    0.281870    0.781870    0.134000
O97    O    0.781870    0.634000    0.781870
O98    O    0.218130    0.634000    0.218130
O99    O    0.218130    0.366000    0.781870
O100    O    0.781870    0.366000    0.218130
O101    O    0.634000    0.718130    0.718130
O102    O    0.634000    0.281870    0.281870
O103    O    0.366000    0.718130    0.281870
O104    O    0.366000    0.281870    0.718130
C1    C    0.250000    0.250000    0.111300
C2    C    0.750000    0.750000    0.111300
C3    C    0.750000    0.250000    0.888700
C4    C    0.250000    0.750000    0.888700
C5    C    0.111300    0.250000    0.250000
C6    C    0.111300    0.750000    0.750000
C7    C    0.888700    0.750000    0.250000
C8    C    0.888700    0.250000    0.750000
C9    C    0.250000    0.111300    0.250000
C10    C    0.750000    0.111300    0.750000
C11    C    0.250000    0.888700    0.750000
C12    C    0.750000    0.888700    0.250000
C13    C    0.250000    0.250000    0.888700
C14    C    0.750000    0.750000    0.888700
C15    C    0.250000    0.750000    0.111300
C16    C    0.750000    0.250000    0.111300
C17    C    0.250000    0.111300    0.750000
C18    C    0.750000    0.111300    0.250000
C19    C    0.750000    0.888700    0.750000
C20    C    0.250000    0.888700    0.250000
C21    C    0.111300    0.250000    0.750000
C22    C    0.111300    0.750000    0.250000
C23    C    0.888700    0.250000    0.250000
C24    C    0.888700    0.750000    0.750000
C25    C    0.250000    0.750000    0.611300
C26    C    0.750000    0.250000    0.611300
C27    C    0.750000    0.750000    0.388700
C28    C    0.250000    0.250000    0.388700
C29    C    0.250000    0.611300    0.750000
C30    C    0.750000    0.611300    0.250000
C31    C    0.250000    0.388700    0.250000
C32    C    0.750000    0.388700    0.750000
C33    C    0.250000    0.750000    0.388700
C34    C    0.750000    0.250000    0.388700
C35    C    0.250000    0.250000    0.611300
C36    C    0.750000    0.750000    0.611300
C37    C    0.250000    0.611300    0.250000
C38    C    0.750000    0.611300    0.750000
C39    C    0.750000    0.388700    0.250000
C40    C    0.250000    0.388700    0.750000
C41    C    0.611300    0.250000    0.750000
C42    C    0.611300    0.750000    0.250000
C43    C    0.388700    0.750000    0.750000
C44    C    0.388700    0.250000    0.250000
C45    C    0.611300    0.250000    0.250000
C46    C    0.611300    0.750000    0.750000
C47    C    0.388700    0.250000    0.750000
C48    C    0.388700    0.750000    0.250000
C49    C    0.750000    0.250000    0.946200
C50    C    0.250000    0.750000    0.946200
C51    C    0.946200    0.750000    0.250000
C52    C    0.946200    0.250000    0.750000
C53    C    0.250000    0.946200    0.750000
C54    C    0.250000    0.750000    0.053800
C55    C    0.750000    0.250000    0.053800
C56    C    0.250000    0.053800    0.750000
C57    C    0.053800    0.250000    0.750000
C58    C    0.053800    0.750000    0.250000
C59    C    0.250000    0.750000    0.553800
C60    C    0.250000    0.553800    0.750000
C61    C    0.750000    0.446200    0.750000
C62    C    0.250000    0.750000    0.446200
C63    C    0.750000    0.553800    0.750000
C64    C    0.250000    0.446200    0.750000
C65    C    0.717100    0.217100    0.973100
C66    C    0.282900    0.782900    0.973100
C67    C    0.973100    0.717100    0.217100
C68    C    0.973100    0.282900    0.782900
C69    C    0.217100    0.973100    0.717100
C70    C    0.217100    0.717100    0.026900
C71    C    0.782900    0.282900    0.026900
C72    C    0.282900    0.026900    0.782900
C73    C    0.026900    0.217100    0.717100
C74    C    0.026900    0.782900    0.282900
C75    C    0.282900    0.717100    0.526900
C76    C    0.973100    0.217100    0.717100
C77    C    0.973100    0.782900    0.282900
C78    C    0.217100    0.526900    0.782900
C79    C    0.782900    0.473100    0.782900
C80    C    0.217100    0.782900    0.473100
C81    C    0.717100    0.526900    0.717100
C82    C    0.282900    0.473100    0.717100
C83    C    0.026900    0.717100    0.217100
C84    C    0.026900    0.282900    0.782900
C85    C    0.217100    0.782900    0.526900
C86    C    0.282900    0.973100    0.782900
C87    C    0.282900    0.717100    0.473100
C88    C    0.217100    0.026900    0.717100
C89    C    0.217100    0.717100    0.973100
C90    C    0.782900    0.282900    0.973100
C91    C    0.282900    0.526900    0.717100
C92    C    0.717100    0.473100    0.717100
C93    C    0.717100    0.217100    0.026900
C94    C    0.282900    0.782900    0.026900
C95    C    0.782900    0.526900    0.782900
C96    C    0.217100    0.473100    0.782900
H1    H    0.695100    0.195100    0.955200
H2    H    0.304900    0.804900    0.955200
H3    H    0.955200    0.695100    0.195100
H4    H    0.955200    0.304900    0.804900
H5    H    0.195100    0.955200    0.695100
H6    H    0.195100    0.695100    0.044800
H7    H    0.804900    0.304900    0.044800
H8    H    0.304900    0.044800    0.804900
H9    H    0.044800    0.195100    0.695100
H10    H    0.044800    0.804900    0.304900
H11    H    0.304900    0.695100    0.544800
H12    H    0.955200    0.195100    0.695100
H13    H    0.955200    0.804900    0.304900
H14    H    0.195100    0.544800    0.804900
H15    H    0.804900    0.455200    0.804900
H16    H    0.195100    0.804900    0.455200
H17    H    0.695100    0.544800    0.695100
H18    H    0.304900    0.455200    0.695100
H19    H    0.044800    0.695100    0.195100
H20    H    0.044800    0.304900    0.804900
H21    H    0.195100    0.804900    0.544800
H22    H    0.304900    0.955200    0.804900
H23    H    0.304900    0.695100    0.455200
H24    H    0.195100    0.044800    0.695100
H25    H    0.195100    0.695100    0.955200
H26    H    0.804900    0.304900    0.955200
H27    H    0.304900    0.544800    0.695100
H28    H    0.695100    0.455200    0.695100
H29    H    0.695100    0.195100    0.044800
H30    H    0.304900    0.804900    0.044800
H31    H    0.804900    0.544800    0.804900
H32    H    0.195100    0.455200    0.804900
C97    C    0.532415    0.223369    0.223369
C98    C    0.478259    0.223374    0.223374
C99    C    0.532435    0.289709    0.289709
C100    C    0.478263    0.289705    0.289705
C101    C    0.559506    0.256529    0.256529
C102    C    0.451185    0.256539    0.256539
F1    F    0.558683    0.321848    0.321848
H33    H    0.457274    0.315350    0.315350
H34    H    0.553358    0.197708    0.197708
H35    H    0.457305    0.197717    0.197717
C103    C    0.723369    0.723369    0.532415
C104    C    0.723374    0.723374    0.478259
C105    C    0.789709    0.789709    0.532435
C106    C    0.789705    0.789705    0.478263
C107    C    0.756529    0.756529    0.559506
C108    C    0.756539    0.756539    0.451185
F2    F    0.821848    0.821848    0.558683
H36    H    0.815350    0.815350    0.457274
H37    H    0.697708    0.697708    0.553358
H38    H    0.697717    0.697717    0.457305
C109    C    0.223369    0.276631    0.967585
C110    C    0.223374    0.276626    0.021741
C111    C    0.289709    0.210291    0.967565
C112    C    0.289705    0.210295    0.021737
C113    C    0.256529    0.243471    0.940494
C114    C    0.256539    0.243461    0.048815
F3    F    0.321848    0.178152    0.941317
H39    H    0.315350    0.184650    0.042726
H40    H    0.197708    0.302292    0.946642
H41    H    0.197717    0.302283    0.042695
C115    C    0.467585    0.223369    0.776631
C116    C    0.521741    0.223374    0.776626
C117    C    0.467565    0.289709    0.710291
C118    C    0.521737    0.289705    0.710295
C119    C    0.440494    0.256529    0.743471
C120    C    0.548815    0.256539    0.743461
F4    F    0.441317    0.321848    0.678152
H42    H    0.542726    0.315350    0.684650
H43    H    0.446642    0.197708    0.802292
H44    H    0.542695    0.197717    0.802283
C121    C    0.467585    0.723369    0.723369
C122    C    0.521741    0.723374    0.723374
C123    C    0.467565    0.789709    0.789709
C124    C    0.521737    0.789705    0.789705
C125    C    0.440494    0.756529    0.756529
C126    C    0.548815    0.756539    0.756539
F5    F    0.441317    0.821848    0.821848
H45    H    0.542726    0.815350    0.815350
H46    H    0.446642    0.697708    0.697708
H47    H    0.542695    0.697717    0.697717
C127    C    0.776631    0.032415    0.276631
C128    C    0.776626    0.978259    0.276626
C129    C    0.710291    0.032435    0.210291
C130    C    0.710295    0.978263    0.210295
C131    C    0.743471    0.059506    0.243471
C132    C    0.743461    0.951185    0.243461
F6    F    0.678152    0.058683    0.178152
H48    H    0.684650    0.957274    0.184650
H49    H    0.802292    0.053358    0.302292
H50    H    0.802283    0.957305    0.302283
C133    C    0.223369    0.032415    0.276631
C134    C    0.223374    0.978259    0.276626
C135    C    0.289709    0.032435    0.210291
C136    C    0.289705    0.978263    0.210295
C137    C    0.256529    0.059506    0.243471
C138    C    0.256539    0.951185    0.243461
F7    F    0.321848    0.058683    0.178152
H51    H    0.315350    0.957274    0.184650
H52    H    0.197708    0.053358    0.302292
H53    H    0.197717    0.957305    0.302283
C139    C    0.776631    0.532415    0.223369
C140    C    0.776626    0.478259    0.223374
C141    C    0.710291    0.532435    0.289709
C142    C    0.710295    0.478263    0.289705
C143    C    0.743471    0.559506    0.256529
C144    C    0.743461    0.451185    0.256539
F8    F    0.678152    0.558683    0.321848
H54    H    0.684650    0.457274    0.315350
H55    H    0.802292    0.553358    0.197708
H56    H    0.802283    0.457305    0.197717
C145    C    0.412933    0.889678    0.112275
C146    C    0.467744    0.723299    0.276671
C147    C    0.521698    0.723558    0.276470
C148    C    0.466349    0.790199    0.209935
C149    C    0.521280    0.789973    0.210118
N1    N    0.435075    0.822771    0.177314
C150    C    0.451875    0.859545    0.143102
C151    C    0.440467    0.756277    0.243682
C152    C    0.548296    0.756761    0.243270
H57    H    0.446923    0.697591    0.302348
H58    H    0.542985    0.698052    0.301967
H59    H    0.544259    0.814291    0.185540
H60    H    0.395506    0.817949    0.180265
H61    H    0.389747    0.862762    0.088092
H62    H    0.432441    0.918071    0.086511
H63    H    0.386732    0.910932    0.138896
O105    O    0.497728    0.868815    0.136993
C153    C    0.610322    0.387725    0.587067
C154    C    0.776701    0.223329    0.532256
C155    C    0.776442    0.223530    0.478302
C156    C    0.709801    0.290065    0.533651
C157    C    0.710027    0.289882    0.478720
N2    N    0.677229    0.322686    0.564925
C158    C    0.640455    0.356898    0.548125
C159    C    0.743723    0.256318    0.559533
C160    C    0.743239    0.256730    0.451704
H64    H    0.802409    0.197652    0.553077
H65    H    0.801948    0.198033    0.457015
H66    H    0.685709    0.314460    0.455741
H67    H    0.682051    0.319735    0.604494
H68    H    0.637238    0.411908    0.610253
H69    H    0.581929    0.413489    0.567559
H70    H    0.589068    0.361104    0.613268
O106    O    0.631185    0.363007    0.502272
C161    C    0.087067    0.387725    0.110322
C162    C    0.032256    0.223329    0.276701
C163    C    0.978302    0.223530    0.276442
C164    C    0.033651    0.290065    0.209801
C165    C    0.978720    0.289882    0.210027
N3    N    0.064925    0.322686    0.177229
C166    C    0.048125    0.356898    0.140455
C167    C    0.059533    0.256318    0.243723
C168    C    0.951704    0.256730    0.243239
H71    H    0.053077    0.197652    0.302409
H72    H    0.957015    0.198033    0.301948
H73    H    0.955741    0.314460    0.185709
H74    H    0.104494    0.319735    0.182051
H75    H    0.110253    0.411908    0.137238
H76    H    0.067559    0.413489    0.081929
H77    H    0.113268    0.361104    0.089068
O107    O    0.002272    0.363007    0.131185
C169    C    0.087067    0.610322    0.887725
C170    C    0.032256    0.776701    0.723329
C171    C    0.978302    0.776442    0.723530
C172    C    0.033651    0.709801    0.790065
C173    C    0.978720    0.710027    0.789882
N4    N    0.064925    0.677229    0.822686
C174    C    0.048125    0.640455    0.856898
C175    C    0.059533    0.743723    0.756318
C176    C    0.951704    0.743239    0.756730
H78    H    0.053077    0.802409    0.697652
H79    H    0.957015    0.801948    0.698033
H80    H    0.955741    0.685709    0.814460
H81    H    0.104494    0.682051    0.819735
H82    H    0.110253    0.637238    0.911908
H83    H    0.067559    0.581929    0.913489
H84    H    0.113268    0.589068    0.861104
O108    O    0.002272    0.631185    0.863007
C177    C    0.889678    0.612275    0.087067
C178    C    0.723299    0.776671    0.032256
C179    C    0.723558    0.776470    0.978302
C180    C    0.790199    0.709935    0.033651
C181    C    0.789973    0.710118    0.978720
N5    N    0.822771    0.677314    0.064925
C182    C    0.859545    0.643102    0.048125
C183    C    0.756277    0.743682    0.059533
C184    C    0.756761    0.743270    0.951704
H85    H    0.697591    0.802348    0.053077
H86    H    0.698052    0.801967    0.957015
H87    H    0.814291    0.685540    0.955741
H88    H    0.817949    0.680265    0.104494
H89    H    0.862762    0.588092    0.110253
H90    H    0.918071    0.586511    0.067559
H91    H    0.910932    0.638896    0.113268
O109    O    0.868815    0.636993    0.002272
C185    C    0.389678    0.587067    0.387725
C186    C    0.223299    0.532256    0.223329
C187    C    0.223558    0.478302    0.223530
C188    C    0.290199    0.533651    0.290065
C189    C    0.289973    0.478720    0.289882
N6    N    0.322771    0.564925    0.322686
C190    C    0.359545    0.548125    0.356898
C191    C    0.256277    0.559533    0.256318
C192    C    0.256761    0.451704    0.256730
H92    H    0.197591    0.553077    0.197652
H93    H    0.198052    0.457015    0.198033
H94    H    0.314291    0.455741    0.314460
H95    H    0.317949    0.604494    0.319735
H96    H    0.362762    0.610253    0.411908
H97    H    0.418071    0.567559    0.413489
H98    H    0.410932    0.613268    0.361104
O110    O    0.368815    0.502272    0.363007
C193    C    0.889678    0.912933    0.612275
C194    C    0.723299    0.967744    0.776671
C195    C    0.723558    0.021698    0.776470
C196    C    0.790199    0.966349    0.709935
C197    C    0.789973    0.021280    0.710118
N7    N    0.822771    0.935075    0.677314
C198    C    0.859545    0.951875    0.643102
C199    C    0.756277    0.940467    0.743682
C200    C    0.756761    0.048296    0.743270
H99    H    0.697591    0.946923    0.802348
H100    H    0.698052    0.042985    0.801967
H101    H    0.814291    0.044259    0.685540
H102    H    0.817949    0.895506    0.680265
H103    H    0.862762    0.889747    0.588092
H104    H    0.918071    0.932441    0.586511
H105    H    0.910932    0.886732    0.638896
O111    O    0.868815    0.997728    0.636993
C201    C    0.389678    0.387725    0.412933
C202    C    0.223299    0.223329    0.467744
C203    C    0.223558    0.223530    0.521698
C204    C    0.290199    0.290065    0.466349
C205    C    0.289973    0.289882    0.521280
N8    N    0.322771    0.322686    0.435075
C206    C    0.359545    0.356898    0.451875
C207    C    0.256277    0.256318    0.440467
C208    C    0.256761    0.256730    0.548296
H106    H    0.197591    0.197652    0.446923
H107    H    0.198052    0.198033    0.542985
H108    H    0.314291    0.314460    0.544259
H109    H    0.317949    0.319735    0.395506
H110    H    0.362762    0.411908    0.389747
H111    H    0.418071    0.413489    0.432441
H112    H    0.410932    0.361104    0.386732
O112    O    0.368815    0.363007    0.497728

loop_
_geom_bond_atom_site_label_1
_geom_bond_atom_site_label_2
_geom_bond_distance
Zn1    O1    0.07514
Zn1    O9    0.07442
Zn1    O66    0.07442
Zn1    O87    0.07442
Zn2    O2    0.07514
Zn2    O10    0.07442
Zn2    O67    0.07442
Zn2    O85    0.07442
Zn3    O3    0.07514
Zn3    O11    0.07442
Zn3    O65    0.07442
Zn3    O86    0.07442
Zn4    O4    0.07514
Zn4    O12    0.07442
Zn4    O68    0.07442
Zn4    O88    0.07442
Zn5    O1    0.07514
Zn5    O13    0.07442
Zn5    O43    0.07442
Zn5    O82    0.07442
Zn6    O4    0.07514
Zn6    O14    0.07442
Zn6    O41    0.07442
Zn6    O83    0.07442
Zn7    O2    0.07514
Zn7    O15    0.07442
Zn7    O42    0.07442
Zn7    O81    0.07442
Zn8    O3    0.07514
Zn8    O16    0.07442
Zn8    O44    0.07442
Zn8    O84    0.07442
Zn9    O1    0.07514
Zn9    O17    0.07442
Zn9    O38    0.07442
Zn9    O59    0.07442
Zn10    O3    0.07514
Zn10    O18    0.07442
Zn10    O39    0.07442
Zn10    O57    0.07442
Zn11    O4    0.07514
Zn11    O19    0.07442
Zn11    O37    0.07442
Zn11    O58    0.07442
Zn12    O2    0.07514
Zn12    O20    0.07442
Zn12    O40    0.07442
Zn12    O60    0.07442
Zn13    O5    0.07514
Zn13    O21    0.07442
Zn13    O54    0.07442
Zn13    O99    0.07442
Zn14    O6    0.07514
Zn14    O22    0.07442
Zn14    O55    0.07442
Zn14    O97    0.07442
Zn15    O7    0.07514
Zn15    O23    0.07442
Zn15    O53    0.07442
Zn15    O98    0.07442
Zn16    O8    0.07514
Zn16    O24    0.07442
Zn16    O56    0.07442
Zn16    O100    0.07442
Zn17    O5    0.07514
Zn17    O25    0.07442
Zn17    O79    0.07442
Zn17    O94    0.07442
Zn18    O8    0.07514
Zn18    O26    0.07442
Zn18    O77    0.07442
Zn18    O95    0.07442
Zn19    O6    0.07514
Zn19    O27    0.07442
Zn19    O78    0.07442
Zn19    O93    0.07442
Zn20    O7    0.07514
Zn20    O28    0.07442
Zn20    O80    0.07442
Zn20    O96    0.07442
Zn21    O5    0.07514
Zn21    O29    0.07442
Zn21    O47    0.07442
Zn21    O74    0.07442
Zn22    O7    0.07514
Zn22    O30    0.07442
Zn22    O45    0.07442
Zn22    O75    0.07442
Zn23    O8    0.07514
Zn23    O31    0.07442
Zn23    O46    0.07442
Zn23    O73    0.07442
Zn24    O6    0.07514
Zn24    O32    0.07442
Zn24    O48    0.07442
Zn24    O76    0.07442
Zn25    O4    0.07514
Zn25    O33    0.07442
Zn25    O63    0.07442
Zn25    O90    0.07442
Zn26    O3    0.07514
Zn26    O34    0.07442
Zn26    O61    0.07442
Zn26    O91    0.07442
Zn27    O2    0.07514
Zn27    O35    0.07442
Zn27    O62    0.07442
Zn27    O89    0.07442
Zn28    O1    0.07514
Zn28    O36    0.07442
Zn28    O64    0.07442
Zn28    O92    0.07442
Zn29    O7    0.07514
Zn29    O49    0.07442
Zn29    O70    0.07442
Zn29    O103    0.07442
Zn30    O6    0.07514
Zn30    O50    0.07442
Zn30    O71    0.07442
Zn30    O101    0.07442
Zn31    O8    0.07514
Zn31    O51    0.07442
Zn31    O69    0.07442
Zn31    O102    0.07442
Zn32    O5    0.07514
Zn32    O52    0.07442
Zn32    O72    0.07442
Zn32    O104    0.07442
O9    C1    0.05046
O10    C2    0.05046
O11    C3    0.05046
O12    C4    0.05046
O13    C5    0.05046
O14    C6    0.05046
O15    C7    0.05046
O16    C8    0.05046
O17    C9    0.05046
O18    C10    0.05046
O19    C11    0.05046
O20    C12    0.05046
O21    C13    0.05046
O22    C14    0.05046
O23    C15    0.05046
O24    C16    0.05046
O25    C17    0.05046
O26    C18    0.05046
O27    C19    0.05046
O28    C20    0.05046
O29    C21    0.05046
O30    C22    0.05046
O31    C23    0.05046
O32    C24    0.05046
O33    C25    0.05046
O34    C26    0.05046
O35    C27    0.05046
O36    C28    0.05046
O37    C6    0.05046
O38    C5    0.05046
O39    C8    0.05046
O40    C7    0.05046
O41    C29    0.05046
O42    C30    0.05046
O43    C31    0.05046
O44    C32    0.05046
O45    C33    0.05046
O46    C34    0.05046
O47    C35    0.05046
O48    C36    0.05046
O49    C37    0.05046
O50    C38    0.05046
O51    C39    0.05046
O52    C40    0.05046
O53    C22    0.05046
O54    C21    0.05046
O55    C24    0.05046
O56    C23    0.05046
O57    C26    0.05046
O58    C25    0.05046
O59    C28    0.05046
O60    C27    0.05046
O61    C41    0.05046
O62    C42    0.05046
O63    C43    0.05046
O64    C44    0.05046
O65    C10    0.05046
O66    C9    0.05046
O67    C12    0.05046
O68    C11    0.05046
O69    C34    0.05046
O70    C33    0.05046
O71    C36    0.05046
O72    C35    0.05046
O73    C18    0.05046
O74    C17    0.05046
O75    C20    0.05046
O76    C19    0.05046
O77    C45    0.05046
O78    C46    0.05046
O79    C47    0.05046
O80    C48    0.05046
O81    C2    0.05046
O82    C1    0.05046
O83    C4    0.05046
O84    C3    0.05046
O85    C42    0.05046
O86    C41    0.05046
O87    C44    0.05046
O88    C43    0.05046
O89    C30    0.05046
O90    C29    0.05046
O91    C32    0.05046
O92    C31    0.05046
O93    C14    0.05046
O94    C13    0.05046
O95    C16    0.05046
O96    C15    0.05046
O97    C38    0.05046
O98    C37    0.05046
O99    C40    0.05046
O100    C39    0.05046
O101    C46    0.05046
O102    C45    0.05046
O103    C48    0.05046
O104    C47    0.05046
C1    C114    0.06317
C2    C183    0.05253
C3    C49    0.05750
C4    C50    0.05750
C5    C167    0.05253
C6    C175    0.05253
C7    C51    0.05750
C8    C52    0.05750
C9    C137    0.05261
C10    C200    0.06372
C11    C53    0.05750
C12    C132    0.06317
C13    C113    0.05261
C14    C184    0.06372
C15    C54    0.05750
C16    C55    0.05750
C17    C56    0.05750
C18    C131    0.05261
C19    C199    0.05253
C20    C138    0.06317
C21    C57    0.05750
C22    C58    0.05750
C23    C168    0.06372
C24    C176    0.06372
C25    C59    0.05750
C26    C159    0.05253
C27    C108    0.06317
C28    C207    0.05253
C29    C60    0.05750
C30    C143    0.05261
C31    C192    0.06372
C32    C61    0.05750
C33    C62    0.05750
C34    C160    0.06372
C35    C208    0.06372
C36    C107    0.05261
C37    C191    0.05253
C38    C63    0.05750
C39    C144    0.06317
C40    C64    0.05750
C41    C120    0.06317
C42    C152    0.06372
C43    C125    0.05261
C44    C102    0.06317
C45    C101    0.05261
C46    C126    0.06317
C47    C119    0.05261
C48    C151    0.05253
C49    C65    0.05374
C49    C90    0.05374
C50    C66    0.05374
C50    C89    0.05374
C51    C67    0.05374
C51    C77    0.05374
C52    C68    0.05374
C52    C76    0.05374
C53    C69    0.05374
C53    C86    0.05374
C54    C70    0.05374
C54    C94    0.05374
C55    C71    0.05374
C55    C93    0.05374
C56    C72    0.05374
C56    C88    0.05374
C57    C73    0.05374
C57    C84    0.05374
C58    C74    0.05374
C58    C83    0.05374
C59    C75    0.05374
C59    C85    0.05374
C60    C78    0.05374
C60    C91    0.05374
C61    C79    0.05374
C61    C92    0.05374
C62    C80    0.05374
C62    C87    0.05374
C63    C81    0.05374
C63    C95    0.05374
C64    C82    0.05374
C64    C96    0.05374
C65    C93    0.05380
C65    H1    0.03589
C66    C94    0.05380
C66    H2    0.03589
C67    C83    0.05380
C67    H3    0.03589
C68    C84    0.05380
C68    H4    0.03589
C69    C88    0.05380
C69    H5    0.03589
C70    C89    0.05380
C70    H6    0.03589
C71    C90    0.05380
C71    H7    0.03589
C72    C86    0.05380
C72    H8    0.03589
C73    C76    0.05380
C73    H9    0.03589
C74    C77    0.05380
C74    H10    0.03589
C75    C87    0.05380
C75    H11    0.03589
C76    H12    0.03589
C77    H13    0.03589
C78    C96    0.05380
C78    H14    0.03589
C79    C95    0.05380
C79    H15    0.03589
C80    C85    0.05380
C80    H16    0.03589
C81    C92    0.05380
C81    H17    0.03589
C82    C91    0.05380
C82    H18    0.03589
C83    H19    0.03589
C84    H20    0.03589
C85    H21    0.03589
C86    H22    0.03589
C87    H23    0.03589
C88    H24    0.03589
C89    H25    0.03589
C90    H26    0.03589
C91    H27    0.03589
C92    H28    0.03589
C93    H29    0.03589
C94    H30    0.03589
C95    H31    0.03589
C96    H32    0.03589
C97    C98    0.05416
C97    C101    0.05416
C97    H34    0.04190
C98    C102    0.05416
C98    H35    0.04190
C99    C100    0.05417
C99    C101    0.05417
C99    F1    0.05249
C100    C102    0.05416
C100    H33    0.04190
C103    C104    0.05416
C103    C107    0.05416
C103    H37    0.04190
C104    C108    0.05416
C104    H38    0.04190
C105    C106    0.05417
C105    C107    0.05417
C105    F2    0.05249
C106    C108    0.05416
C106    H36    0.04190
C109    C110    0.05416
C109    C113    0.05416
C109    H40    0.04190
C110    C114    0.05416
C110    H41    0.04190
C111    C112    0.05417
C111    C113    0.05417
C111    F3    0.05249
C112    C114    0.05416
C112    H39    0.04190
C115    C116    0.05416
C115    C119    0.05416
C115    H43    0.04190
C116    C120    0.05416
C116    H44    0.04190
C117    C118    0.05417
C117    C119    0.05417
C117    F4    0.05249
C118    C120    0.05416
C118    H42    0.04190
C121    C122    0.05416
C121    C125    0.05416
C121    H46    0.04190
C122    C126    0.05416
C122    H47    0.04190
C123    C124    0.05417
C123    C125    0.05417
C123    F5    0.05249
C124    C126    0.05416
C124    H45    0.04190
C127    C128    0.05416
C127    C131    0.05416
C127    H49    0.04190
C128    C132    0.05416
C128    H50    0.04190
C129    C130    0.05417
C129    C131    0.05417
C129    F6    0.05249
C130    C132    0.05416
C130    H48    0.04190
C133    C134    0.05416
C133    C137    0.05416
C133    H52    0.04190
C134    C138    0.05416
C134    H53    0.04190
C135    C136    0.05417
C135    C137    0.05417
C135    F7    0.05249
C136    C138    0.05416
C136    H51    0.04190
C139    C140    0.05416
C139    C143    0.05416
C139    H55    0.04190
C140    C144    0.05416
C140    H56    0.04190
C141    C142    0.05417
C141    C143    0.05417
C141    F8    0.05249
C142    C144    0.05416
C142    H54    0.04190
C145    C150    0.05809
C145    H61    0.04298
C145    H62    0.04302
C145    H63    0.04298
C146    C147    0.05396
C146    C151    0.05404
C146    H57    0.04188
C147    C152    0.05396
C147    H58    0.04188
C148    C149    0.05493
C148    N1    0.05571
C148    C151    0.05440
C149    C152    0.05415
C149    H59    0.04152
N1    C150    0.05296
N1    H60    0.03997
C150    O105    0.04718
C153    C158    0.05809
C153    H68    0.04298
C153    H69    0.04302
C153    H70    0.04298
C154    C155    0.05396
C154    C159    0.05404
C154    H64    0.04188
C155    C160    0.05396
C155    H65    0.04188
C156    C157    0.05493
C156    N2    0.05571
C156    C159    0.05440
C157    C160    0.05415
C157    H66    0.04152
N2    C158    0.05296
N2    H67    0.03997
C158    O106    0.04718
C161    C166    0.05809
C161    H75    0.04298
C161    H76    0.04302
C161    H77    0.04298
C162    C163    0.05396
C162    C167    0.05404
C162    H71    0.04188
C163    C168    0.05396
C163    H72    0.04188
C164    C165    0.05493
C164    N3    0.05571
C164    C167    0.05440
C165    C168    0.05415
C165    H73    0.04152
N3    C166    0.05296
N3    H74    0.03997
C166    O107    0.04718
C169    C174    0.05809
C169    H82    0.04298
C169    H83    0.04302
C169    H84    0.04298
C170    C171    0.05396
C170    C175    0.05404
C170    H78    0.04188
C171    C176    0.05396
C171    H79    0.04188
C172    C173    0.05493
C172    N4    0.05571
C172    C175    0.05440
C173    C176    0.05415
C173    H80    0.04152
N4    C174    0.05296
N4    H81    0.03997
C174    O108    0.04718
C177    C182    0.05809
C177    H89    0.04298
C177    H90    0.04302
C177    H91    0.04298
C178    C179    0.05396
C178    C183    0.05404
C178    H85    0.04188
C179    C184    0.05396
C179    H86    0.04188
C180    C181    0.05493
C180    N5    0.05571
C180    C183    0.05440
C181    C184    0.05415
C181    H87    0.04152
N5    C182    0.05296
N5    H88    0.03997
C182    O109    0.04718
C185    C190    0.05809
C185    H96    0.04298
C185    H97    0.04302
C185    H98    0.04298
C186    C187    0.05396
C186    C191    0.05404
C186    H92    0.04188
C187    C192    0.05396
C187    H93    0.04188
C188    C189    0.05493
C188    N6    0.05571
C188    C191    0.05440
C189    C192    0.05415
C189    H94    0.04152
N6    C190    0.05296
N6    H95    0.03997
C190    O110    0.04718
C193    C198    0.05809
C193    H103    0.04298
C193    H104    0.04302
C193    H105    0.04298
C194    C195    0.05396
C194    C199    0.05404
C194    H99    0.04188
C195    C200    0.05396
C195    H100    0.04188
C196    C197    0.05493
C196    N7    0.05571
C196    C199    0.05440
C197    C200    0.05415
C197    H101    0.04152
N7    C198    0.05296
N7    H102    0.03997
C198    O111    0.04718
C201    C206    0.05809
C201    H110    0.04298
C201    H111    0.04302
C201    H112    0.04298
C202    C203    0.05396
C202    C207    0.05404
C202    H106    0.04188
C203    C208    0.05396
C203    H107    0.04188
C204    C205    0.05493
C204    N8    0.05571
C204    C207    0.05440
C205    C208    0.05415
C205    H108    0.04152
N8    C206    0.05296
N8    H109    0.03997
C206    O112    0.04718
