data_new_xtal_PM
_symmetry_space_group_name_H-M    'P1'
_cell_length_a    13.715000
_cell_length_b    13.715000
_cell_length_c    7.952260
_cell_angle_alpha    90.000000
_cell_angle_beta    90.000000
_cell_angle_gamma    90.000000
_symmetry_Int_Tables_number 1

loop_
_symmetry_equiv_pos_as_xyz
'x,y,z'

loop_
_atom_site_label
_atom_site_type_symbol
_atom_site_fract_x
_atom_site_fract_y
_atom_site_fract_z
C1    C    0.000000    0.544700    0.000000
Cu1    Cu    0.000000    0.000000    0.000000
Si1    Si    0.000000    0.000000    0.500000
F1    F    0.000000    0.000000    0.283000
F2    F    0.087800    0.087800    0.500000
C2    C    0.455300    0.000000    0.000000
F3    F    0.912200    0.087800    0.500000
C3    C    0.000000    0.455300    0.000000
F4    F    0.912200    0.912200    0.500000
C4    C    0.544700    0.000000    0.000000
F5    F    0.087800    0.912200    0.500000
F6    F    0.000000    0.000000    0.717000
C5    C    0.500000    0.044700    0.500000
Cu2    Cu    0.500000    0.500000    0.500000
Si2    Si    0.500000    0.500000    0.000000
F7    F    0.500000    0.500000    0.783000
F8    F    0.587800    0.587800    0.000000
C6    C    0.955300    0.500000    0.500000
F9    F    0.412200    0.587800    0.000000
C7    C    0.500000    0.955300    0.500000
F10    F    0.412200    0.412200    0.000000
C8    C    0.044700    0.500000    0.500000
F11    F    0.587800    0.412200    0.000000
F12    F    0.500000    0.500000    0.217000
C9    C    0.951271    0.131225    0.669942
C10    C    0.974433    0.289475    0.824149
C11    C    0.974350    0.187280    0.826256
C12    C    0.017475    0.289268    0.118400
C13    C    0.016753    0.187419    0.116128
C14    C    0.996157    0.340413    0.971322
N1    N    0.995405    0.138914    0.971459
H1    H    0.957874    0.329068    0.709905
H2    H    0.034387    0.328265    0.232990
H3    H    0.033166    0.146932    0.229391
H4    H    0.954532    0.051549    0.694327
H5    H    0.876806    0.150043    0.625799
H6    H    0.004816    0.149553    0.570104
C15    C    0.868775    0.951271    0.330058
C16    C    0.710525    0.974433    0.175851
C17    C    0.812720    0.974350    0.173744
C18    C    0.710732    0.017475    0.881600
C19    C    0.812581    0.016753    0.883872
C20    C    0.659587    0.996157    0.028678
N2    N    0.861086    0.995405    0.028541
H7    H    0.670932    0.957874    0.290095
H8    H    0.671735    0.034387    0.767010
H9    H    0.853068    0.033166    0.770609
H10    H    0.948451    0.954532    0.305673
H11    H    0.849957    0.876806    0.374201
H12    H    0.850447    0.004816    0.429896
C21    C    0.951271    0.868775    0.669942
C22    C    0.974433    0.710525    0.824149
C23    C    0.974350    0.812720    0.826256
C24    C    0.017475    0.710732    0.118400
C25    C    0.016753    0.812581    0.116128
C26    C    0.996157    0.659587    0.971322
N3    N    0.995405    0.861086    0.971459
H13    H    0.957874    0.670932    0.709905
H14    H    0.034387    0.671735    0.232990
H15    H    0.033166    0.853068    0.229391
H16    H    0.954532    0.948451    0.694327
H17    H    0.876806    0.849957    0.625799
H18    H    0.004816    0.850447    0.570104
C27    C    0.131225    0.048729    0.669942
C28    C    0.289475    0.025567    0.824149
C29    C    0.187280    0.025650    0.826256
C30    C    0.289268    0.982525    0.118400
C31    C    0.187419    0.983247    0.116128
C32    C    0.340413    0.003843    0.971322
N4    N    0.138914    0.004595    0.971459
H19    H    0.329068    0.042126    0.709905
H20    H    0.328265    0.965613    0.232990
H21    H    0.146932    0.966834    0.229391
H22    H    0.051549    0.045468    0.694327
H23    H    0.150043    0.123194    0.625799
H24    H    0.149553    0.995184    0.570104
C33    C    0.548729    0.631225    0.830058
C34    C    0.525567    0.789475    0.675851
C35    C    0.525650    0.687280    0.673744
C36    C    0.482525    0.789268    0.381600
C37    C    0.483247    0.687419    0.383872
C38    C    0.503843    0.840413    0.528678
N5    N    0.504595    0.638914    0.528541
H25    H    0.542126    0.829068    0.790095
H26    H    0.465613    0.828265    0.267010
H27    H    0.466834    0.646932    0.270609
H28    H    0.545468    0.551549    0.805673
H29    H    0.623194    0.650043    0.874201
H30    H    0.495184    0.649553    0.929896
C39    C    0.368775    0.451271    0.830058
C40    C    0.210525    0.474433    0.675851
C41    C    0.312720    0.474350    0.673744
C42    C    0.210732    0.517475    0.381600
C43    C    0.312581    0.516753    0.383872
C44    C    0.159587    0.496157    0.528678
N6    N    0.361086    0.495405    0.528541
H31    H    0.170932    0.457874    0.790095
H32    H    0.171735    0.534387    0.267010
H33    H    0.353068    0.533166    0.270609
H34    H    0.448451    0.454532    0.805673
H35    H    0.349957    0.376806    0.874201
H36    H    0.350447    0.504816    0.929896
C45    C    0.451271    0.368775    0.169942
C46    C    0.474433    0.210525    0.324149
C47    C    0.474350    0.312720    0.326256
C48    C    0.517475    0.210732    0.618400
C49    C    0.516753    0.312581    0.616128
C50    C    0.496157    0.159587    0.471322
N7    N    0.495405    0.361086    0.471459
H37    H    0.457874    0.170932    0.209905
H38    H    0.534387    0.171735    0.732990
H39    H    0.533166    0.353068    0.729391
H40    H    0.454532    0.448451    0.194327
H41    H    0.376806    0.349957    0.125799
H42    H    0.504816    0.350447    0.070104
C51    C    0.631225    0.548729    0.830058
C52    C    0.789475    0.525567    0.675851
C53    C    0.687280    0.525650    0.673744
C54    C    0.789268    0.482525    0.381600
C55    C    0.687419    0.483247    0.383872
C56    C    0.840413    0.503843    0.528678
N8    N    0.638914    0.504595    0.528541
H43    H    0.829068    0.542126    0.790095
H44    H    0.828265    0.465613    0.267010
H45    H    0.646932    0.466834    0.270609
H46    H    0.551549    0.545468    0.805673
H47    H    0.650043    0.623194    0.874201
H48    H    0.649553    0.495184    0.929896

loop_
_geom_bond_atom_site_label_1
_geom_bond_atom_site_label_2
_geom_bond_distance
C1    C3    0.08940
C1    C26    0.11847
Cu1    N1    0.14189
Cu1    N2    0.14189
Cu1    N3    0.14189
Cu1    N4    0.14189
Si1    F1    0.21700
Si1    F2    0.12417
Si1    F3    0.12417
Si1    F4    0.12417
Si1    F5    0.12417
Si1    F6    0.21700
C2    C4    0.08940
C2    C32    0.11847
C3    C14    0.11847
C4    C20    0.11847
C5    C7    0.08940
C5    C50    0.11847
Cu2    N5    0.14189
Cu2    N6    0.14189
Cu2    N7    0.14189
Cu2    N8    0.14189
Si2    F7    0.21700
Si2    F8    0.12417
Si2    F9    0.12417
Si2    F10    0.12417
Si2    F11    0.12417
Si2    F12    0.21700
C6    C8    0.08940
C6    C56    0.11847
C7    C38    0.11847
C8    C44    0.11847
C9    C11    0.16766
C9    H4    0.08339
C9    H5    0.08859
C9    H6    0.11476
C10    C11    0.10222
C10    C14    0.15725
C10    H1    0.12204
C11    N1    0.15449
C12    C13    0.10188
C12    C14    0.15717
C12    H2    0.12222
C13    N1    0.15407
C13    H3    0.12140
C15    C17    0.16766
C15    H10    0.08339
C15    H11    0.08859
C15    H12    0.11476
C16    C17    0.10222
C16    C20    0.15725
C16    H7    0.12204
C17    N2    0.15449
C18    C19    0.10188
C18    C20    0.15717
C18    H8    0.12222
C19    N2    0.15407
C19    H9    0.12140
C21    C23    0.16766
C21    H16    0.08339
C21    H17    0.08859
C21    H18    0.11476
C22    C23    0.10222
C22    C26    0.15725
C22    H13    0.12204
C23    N3    0.15449
C24    C25    0.10188
C24    C26    0.15717
C24    H14    0.12222
C25    N3    0.15407
C25    H15    0.12140
C27    C29    0.16766
C27    H22    0.08339
C27    H23    0.08859
C27    H24    0.11476
C28    C29    0.10222
C28    C32    0.15725
C28    H19    0.12204
C29    N4    0.15449
C30    C31    0.10188
C30    C32    0.15717
C30    H20    0.12222
C31    N4    0.15407
C31    H21    0.12140
C33    C35    0.16766
C33    H28    0.08339
C33    H29    0.08859
C33    H30    0.11476
C34    C35    0.10222
C34    C38    0.15725
C34    H25    0.12204
C35    N5    0.15449
C36    C37    0.10188
C36    C38    0.15717
C36    H26    0.12222
C37    N5    0.15407
C37    H27    0.12140
C39    C41    0.16766
C39    H34    0.08339
C39    H35    0.08859
C39    H36    0.11476
C40    C41    0.10222
C40    C44    0.15725
C40    H31    0.12204
C41    N6    0.15449
C42    C43    0.10188
C42    C44    0.15717
C42    H32    0.12222
C43    N6    0.15407
C43    H33    0.12140
C45    C47    0.16766
C45    H40    0.08339
C45    H41    0.08859
C45    H42    0.11476
C46    C47    0.10222
C46    C50    0.15725
C46    H37    0.12204
C47    N7    0.15449
C48    C49    0.10188
C48    C50    0.15717
C48    H38    0.12222
C49    N7    0.15407
C49    H39    0.12140
C51    C53    0.16766
C51    H46    0.08339
C51    H47    0.08859
C51    H48    0.11476
C52    C53    0.10222
C52    C56    0.15725
C52    H43    0.12204
C53    N8    0.15449
C54    C55    0.10188
C54    C56    0.15717
C54    H44    0.12222
C55    N8    0.15407
C55    H45    0.12140
