data_diamond_PM
_symmetry_space_group_name_H-M    'P1'
_cell_length_a    7.134000
_cell_length_b    7.134000
_cell_length_c    3.567000
_cell_angle_alpha    90.000000
_cell_angle_beta    90.000000
_cell_angle_gamma    90.000000
_symmetry_Int_Tables_number 1

loop_
_symmetry_equiv_pos_as_xyz
'x,y,z'

loop_
_atom_site_label
_atom_site_type_symbol
_atom_site_fract_x
_atom_site_fract_y
_atom_site_fract_z
C1    C    0.125000    0.125000    0.250000
C2    C    0.000000    0.000000    0.000000
C3    C    0.125000    0.375000    0.750000
C4    C    0.000000    0.250000    0.500000
C5    C    0.375000    0.125000    0.750000
C6    C    0.250000    0.000000    0.500000
C7    C    0.375000    0.375000    0.250000
C8    C    0.250000    0.250000    0.000000
C9    C    0.125000    0.625000    0.250000
C10    C    0.000000    0.500000    0.000000
C11    C    0.125000    0.875000    0.750000
C12    C    0.000000    0.750000    0.500000
C13    C    0.375000    0.625000    0.750000
C14    C    0.250000    0.500000    0.500000
C15    C    0.375000    0.875000    0.250000
C16    C    0.250000    0.750000    0.000000
C17    C    0.625000    0.125000    0.250000
C18    C    0.500000    0.000000    0.000000
C19    C    0.625000    0.375000    0.750000
C20    C    0.500000    0.250000    0.500000
C21    C    0.875000    0.125000    0.750000
C22    C    0.750000    0.000000    0.500000
C23    C    0.875000    0.375000    0.250000
C24    C    0.750000    0.250000    0.000000
C25    C    0.625000    0.625000    0.250000
C26    C    0.500000    0.500000    0.000000
C27    C    0.625000    0.875000    0.750000
C28    C    0.500000    0.750000    0.500000
C29    C    0.875000    0.625000    0.750000
C30    C    0.750000    0.500000    0.500000
C31    C    0.875000    0.875000    0.250000
C32    C    0.750000    0.750000    0.000000

loop_
_geom_bond_atom_site_label_1
_geom_bond_atom_site_label_2
_geom_bond_distance
C1    C2    0.30619
C1    C4    0.30619
C1    C6    0.30619
C1    C8    0.30619
C2    C11    0.30619
C2    C21    0.30619
C2    C31    0.30619
C3    C4    0.30619
C3    C8    0.30619
C3    C10    0.30619
C3    C14    0.30619
C4    C21    0.30619
C4    C23    0.30619
C5    C6    0.30619
C5    C8    0.30619
C5    C18    0.30619
C5    C20    0.30619
C6    C11    0.30619
C6    C15    0.30619
C7    C8    0.30619
C7    C14    0.30619
C7    C20    0.30619
C7    C26    0.30619
C9    C10    0.30619
C9    C12    0.30619
C9    C14    0.30619
C9    C16    0.30619
C10    C23    0.30619
C10    C29    0.30619
C11    C12    0.30619
C11    C16    0.30619
C12    C29    0.30619
C12    C31    0.30619
C13    C14    0.30619
C13    C16    0.30619
C13    C26    0.30619
C13    C28    0.30619
C15    C16    0.30619
C15    C18    0.30619
C15    C28    0.30619
C17    C18    0.30619
C17    C20    0.30619
C17    C22    0.30619
C17    C24    0.30619
C18    C27    0.30619
C19    C20    0.30619
C19    C24    0.30619
C19    C26    0.30619
C19    C30    0.30619
C21    C22    0.30619
C21    C24    0.30619
C22    C27    0.30619
C22    C31    0.30619
C23    C24    0.30619
C23    C30    0.30619
C25    C26    0.30619
C25    C28    0.30619
C25    C30    0.30619
C25    C32    0.30619
C27    C28    0.30619
C27    C32    0.30619
C29    C30    0.30619
C29    C32    0.30619
C31    C32    0.30619
