data_POSCAR_PM
_symmetry_space_group_name_H-M    'P1'
_cell_length_a    20.761113
_cell_length_b    16.081488
_cell_length_c    45.553593
_cell_angle_alpha    90.000000
_cell_angle_beta    90.000000
_cell_angle_gamma    116.565051
_symmetry_Int_Tables_number 1

loop_
_symmetry_equiv_pos_as_xyz
'x,y,z'

loop_
_atom_site_label
_atom_site_type_symbol
_atom_site_fract_x
_atom_site_fract_y
_atom_site_fract_z
_atom_site_charge
Si1    Si    0.000255    0.251475    0.417973    0.000000
Si2    Si    0.055497    0.363315    0.306904    0.000000
Si3    Si    0.111647    0.311816    0.472010    0.000000
Si4    Si    0.111241    0.306969    0.362083    0.000000
Si5    Si    0.167220    0.251820    0.417120    0.000000
Si6    Si    0.221453    0.360839    0.306876    0.000000
Si7    Si    0.279983    0.313135    0.471747    0.000000
Si8    Si    0.278400    0.306558    0.361798    0.000000
Si9    Si    0.333900    0.251449    0.416997    0.000000
Si10    Si    0.388658    0.362388    0.306577    0.000000
Si11    Si    0.447905    0.315253    0.474511    0.000000
Si12    Si    0.445160    0.307265    0.361870    0.000000
Si13    Si    0.000735    0.418460    0.416909    0.000000
Si14    Si    0.055389    0.030062    0.306753    0.000000
Si15    Si    0.114260    0.481386    0.473474    0.000000
Si16    Si    0.111809    0.474046    0.361765    0.000000
Si17    Si    0.166474    0.417678    0.417138    0.000000
Si18    Si    0.222028    0.027938    0.306682    0.000000
Si19    Si    0.281360    0.484480    0.477183    0.000000
Si20    Si    0.277901    0.472940    0.361579    0.000000
Si21    Si    0.333648    0.417880    0.417451    0.000000
Si22    Si    0.388584    0.030147    0.306649    0.000000
Si23    Si    0.446182    0.483078    0.476906    0.000000
Si24    Si    0.444639    0.473426    0.361590    0.000000
Si25    Si    0.000307    0.084359    0.417432    0.000000
Si26    Si    0.055244    0.196521    0.306814    0.000000
Si27    Si    0.112708    0.149548    0.477072    0.000000
Si28    Si    0.111531    0.140610    0.361728    0.000000
Si29    Si    0.167140    0.085130    0.417751    0.000000
Si30    Si    0.221977    0.194361    0.306807    0.000000
Si31    Si    0.277368    0.146065    0.474361    0.000000
Si32    Si    0.277998    0.139689    0.361938    0.000000
Si33    Si    0.333307    0.084571    0.417711    0.000000
Si34    Si    0.388618    0.196464    0.306955    0.000000
Si35    Si    0.445133    0.145166    0.471720    0.000000
Si36    Si    0.444584    0.140238    0.362044    0.000000
Si37    Si    0.499779    0.250686    0.417289    0.000000
Si38    Si    0.555232    0.360623    0.306760    0.000000
Si39    Si    0.614824    0.318264    0.477886    0.000000
Si40    Si    0.611456    0.306324    0.361784    0.000000
Si41    Si    0.667015    0.250991    0.417448    0.000000
Si42    Si    0.721785    0.362791    0.306802    0.000000
Si43    Si    0.779879    0.316731    0.476909    0.000000
Si44    Si    0.778206    0.307155    0.361708    0.000000
Si45    Si    0.833943    0.251933    0.417891    0.000000
Si46    Si    0.888595    0.360890    0.306715    0.000000
Si47    Si    0.944181    0.313270    0.475537    0.000000
Si48    Si    0.944807    0.306460    0.361888    0.000000
Si49    Si    0.500593    0.418592    0.418016    0.000000
Si50    Si    0.555446    0.027824    0.306641    0.000000
Si51    Si    0.610833    0.479604    0.475299    0.000000
Si52    Si    0.611169    0.472733    0.361867    0.000000
Si53    Si    0.666900    0.418051    0.417856    0.000000
Si54    Si    0.722692    0.030470    0.306821    0.000000
Si55    Si    0.778397    0.478873    0.471709    0.000000
Si56    Si    0.777786    0.473418    0.361899    0.000000
Si57    Si    0.833829    0.418462    0.416921    0.000000
Si58    Si    0.888705    0.027677    0.306854    0.000000
Si59    Si    0.946443    0.479692    0.471284    0.000000
Si60    Si    0.944854    0.473180    0.361619    0.000000
Si61    Si    0.500460    0.084843    0.416987    0.000000
Si62    Si    0.555112    0.194164    0.306895    0.000000
Si63    Si    0.613215    0.146143    0.471389    0.000000
Si64    Si    0.611760    0.139824    0.361830    0.000000
Si65    Si    0.667469    0.084919    0.416908    0.000000
Si66    Si    0.722022    0.196521    0.306708    0.000000
Si67    Si    0.781095    0.147988    0.473853    0.000000
Si68    Si    0.778671    0.140870    0.361798    0.000000
Si69    Si    0.833041    0.084097    0.417066    0.000000
Si70    Si    0.888906    0.194501    0.306746    0.000000
Si71    Si    0.948273    0.151525    0.477799    0.000000
Si72    Si    0.944876    0.139862    0.361747    0.000000
Si73    Si    0.999951    0.751321    0.417283    0.000000
Si74    Si    0.055514    0.863312    0.306507    0.000000
Si75    Si    0.111571    0.812071    0.471269    0.000000
Si76    Si    0.111141    0.806893    0.361547    0.000000
Si77    Si    0.166981    0.751650    0.416604    0.000000
Si78    Si    0.221834    0.861305    0.306496    0.000000
Si79    Si    0.279682    0.812789    0.470856    0.000000
Si80    Si    0.278332    0.806609    0.361416    0.000000
Si81    Si    0.334366    0.751837    0.416328    0.000000
Si82    Si    0.388458    0.863856    0.306066    0.000000
Si83    Si    0.447605    0.814276    0.472120    0.000000
Si84    Si    0.445428    0.807406    0.360844    0.000000
Si85    Si    0.000634    0.918106    0.416799    0.000000
Si86    Si    0.055158    0.529487    0.306556    0.000000
Si87    Si    0.114635    0.981738    0.474203    0.000000
Si88    Si    0.111800    0.974109    0.361623    0.000000
Si89    Si    0.166319    0.917371    0.416927    0.000000
Si90    Si    0.221655    0.527081    0.306212    0.000000
Si91    Si    0.281812    0.985028    0.477740    0.000000
Si92    Si    0.278106    0.973152    0.361527    0.000000
Si93    Si    0.333552    0.917579    0.417102    0.000000
Si94    Si    0.387584    0.526206    0.305554    0.000000
Si95    Si    0.447102    0.983794    0.477063    0.000000
Si96    Si    0.444804    0.973881    0.361388    0.000000
Si97    Si    0.000115    0.584546    0.417114    0.000000
Si98    Si    0.055349    0.696293    0.305918    0.000000
Si99    Si    0.113328    0.650283    0.476760    0.000000
Si100    Si    0.111162    0.640296    0.361525    0.000000
Si101    Si    0.167231    0.585350    0.417738    0.000000
Si102    Si    0.220565    0.694053    0.306741    0.000000
Si103    Si    0.277610    0.646953    0.475528    0.000000
Si104    Si    0.277562    0.639544    0.361570    0.000000
Si105    Si    0.333714    0.584996    0.417386    0.000000
Si106    Si    0.386435    0.696541    0.305977    0.000000
Si107    Si    0.444787    0.645355    0.471338    0.000000
Si108    Si    0.443956    0.639612    0.360835    0.000000
Si109    Si    0.499677    0.750799    0.416216    0.000000
Si110    Si    0.557504    0.862014    0.306264    0.000000
Si111    Si    0.615090    0.817608    0.476794    0.000000
Si112    Si    0.611589    0.806300    0.361096    0.000000
Si113    Si    0.666923    0.751020    0.416946    0.000000
Si114    Si    0.722339    0.862976    0.306332    0.000000
Si115    Si    0.779857    0.816839    0.477048    0.000000
Si116    Si    0.778120    0.806955    0.360988    0.000000
Si117    Si    0.833777    0.751816    0.417264    0.000000
Si118    Si    0.889444    0.861465    0.306271    0.000000
Si119    Si    0.944168    0.813317    0.474518    0.000000
Si120    Si    0.944678    0.806430    0.361495    0.000000
Si121    Si    0.500579    0.918329    0.417117    0.000000
Si122    Si    0.555091    0.527062    0.306455    0.000000
Si123    Si    0.611085    0.980339    0.475071    0.000000
Si124    Si    0.611693    0.973245    0.361596    0.000000
Si125    Si    0.666732    0.917990    0.417402    0.000000
Si126    Si    0.721670    0.529247    0.306867    0.000000
Si127    Si    0.777900    0.978454    0.471489    0.000000
Si128    Si    0.777973    0.973599    0.361813    0.000000
Si129    Si    0.833638    0.918234    0.416793    0.000000
Si130    Si    0.887865    0.527230    0.306431    0.000000
Si131    Si    0.946522    0.979485    0.471282    0.000000
Si132    Si    0.945084    0.973237    0.361772    0.000000
Si133    Si    0.500159    0.585198    0.416576    0.000000
Si134    Si    0.555607    0.693814    0.305306    0.000000
Si135    Si    0.612869    0.646051    0.471051    0.000000
Si136    Si    0.611075    0.639520    0.361447    0.000000
Si137    Si    0.667172    0.584783    0.416704    0.000000
Si138    Si    0.720720    0.694597    0.306000    0.000000
Si139    Si    0.780976    0.647937    0.473004    0.000000
Si140    Si    0.777894    0.640459    0.361459    0.000000
Si141    Si    0.833091    0.584281    0.416764    0.000000
Si142    Si    0.888005    0.694959    0.305943    0.000000
Si143    Si    0.948294    0.651378    0.477158    0.000000
Si144    Si    0.944408    0.639869    0.360928    0.000000
C1    C    0.999520    0.750236    0.375281    0.000000
C2    C    0.111182    0.806807    0.429288    0.000000
C3    C    0.057061    0.869194    0.480176    0.000000
C4    C    0.111067    0.807464    0.319894    0.000000
C5    C    0.166906    0.751090    0.374943    0.000000
C6    C    0.278083    0.806815    0.428848    0.000000
C7    C    0.225154    0.871476    0.478275    0.000000
C8    C    0.278042    0.806132    0.319805    0.000000
C9    C    0.334309    0.751120    0.374610    0.000000
C10    C    0.444905    0.807066    0.429336    0.000000
C11    C    0.391204    0.870621    0.479587    0.000000
C12    C    0.445645    0.808661    0.318692    0.000000
C13    C    0.000796    0.917646    0.375136    0.000000
C14    C    0.111186    0.973214    0.430398    0.000000
C15    C    0.057543    0.537344    0.480444    0.000000
C16    C    0.111487    0.974670    0.320087    0.000000
C17    C    0.167276    0.918379    0.375168    0.000000
C18    C    0.276614    0.971271    0.431182    0.000000
C19    C    0.222969    0.537020    0.484306    0.000000
C20    C    0.277979    0.972677    0.320007    0.000000
C21    C    0.334021    0.918207    0.375202    0.000000
C22    C    0.444447    0.972737    0.430901    0.000000
C23    C    0.391582    0.539198    0.485164    0.000000
C24    C    0.444628    0.974448    0.319830    0.000000
C25    C    0.000209    0.584996    0.375153    0.000000
C26    C    0.111160    0.640140    0.430995    0.000000
C27    C    0.058470    0.706019    0.485175    0.000000
C28    C    0.110416    0.640330    0.320201    0.000000
C29    C    0.166942    0.585220    0.375745    0.000000
C30    C    0.279353    0.641595    0.430699    0.000000
C31    C    0.224506    0.705303    0.483310    0.000000
C32    C    0.276461    0.638971    0.320229    0.000000
C33    C    0.332891    0.583843    0.375344    0.000000
C34    C    0.444885    0.640795    0.429280    0.000000
C35    C    0.390440    0.702676    0.480214    0.000000
C36    C    0.443131    0.639611    0.318743    0.000000
C37    C    0.500502    0.751341    0.374379    0.000000
C38    C    0.609968    0.804984    0.430677    0.000000
C39    C    0.556264    0.869864    0.483346    0.000000
C40    C    0.611658    0.805741    0.319683    0.000000
C41    C    0.667398    0.751463    0.375013    0.000000
C42    C    0.777756    0.806374    0.430906    0.000000
C43    C    0.724924    0.872365    0.485366    0.000000
C44    C    0.778017    0.806898    0.319153    0.000000
C45    C    0.833574    0.751814    0.375261    0.000000
C46    C    0.945276    0.807657    0.430501    0.000000
C47    C    0.891123    0.871445    0.483161    0.000000
C48    C    0.944779    0.805948    0.319985    0.000000
C49    C    0.500559    0.918452    0.375062    0.000000
C50    C    0.611974    0.974238    0.430630    0.000000
C51    C    0.557631    0.538000    0.483007    0.000000
C52    C    0.611761    0.972890    0.320009    0.000000
C53    C    0.666300    0.916941    0.375424    0.000000
C54    C    0.777912    0.973528    0.429483    0.000000
C55    C    0.723773    0.535942    0.480390    0.000000
C56    C    0.777899    0.974152    0.320181    0.000000
C57    C    0.833419    0.917365    0.375029    0.000000
C58    C    0.944659    0.973541    0.429212    0.000000
C59    C    0.891697    0.537936    0.478719    0.000000
C60    C    0.944767    0.972738    0.320215    0.000000
C61    C    0.499698    0.584259    0.374878    0.000000
C62    C    0.611172    0.640310    0.428956    0.000000
C63    C    0.558138    0.704120    0.478499    0.000000
C64    C    0.610516    0.638430    0.320154    0.000000
C65    C    0.666903    0.584038    0.375119    0.000000
C66    C    0.777926    0.640293    0.429837    0.000000
C67    C    0.724099    0.703807    0.480014    0.000000
C68    C    0.777503    0.640600    0.320074    0.000000
C69    C    0.833886    0.585088    0.375023    0.000000
C70    C    0.943415    0.638548    0.430990    0.000000
C71    C    0.889680    0.703637    0.484084    0.000000
C72    C    0.943969    0.639338    0.319018    0.000000
C73    C    0.999637    0.250358    0.375925    0.000000
C74    C    0.111569    0.307187    0.429886    0.000000
C75    C    0.057163    0.369198    0.480572    0.000000
C76    C    0.110716    0.307166    0.320504    0.000000
C77    C    0.167027    0.251109    0.375418    0.000000
C78    C    0.278196    0.307130    0.429537    0.000000
C79    C    0.224880    0.371015    0.479064    0.000000
C80    C    0.277912    0.305682    0.320172    0.000000
C81    C    0.334089    0.251003    0.375353    0.000000
C82    C    0.444431    0.306447    0.430631    0.000000
C83    C    0.390735    0.370471    0.481172    0.000000
C84    C    0.444781    0.307326    0.320342    0.000000
C85    C    0.000601    0.417705    0.375258    0.000000
C86    C    0.111285    0.473756    0.430241    0.000000
C87    C    0.057163    0.036829    0.480885    0.000000
C88    C    0.110963    0.474132    0.320313    0.000000
C89    C    0.167207    0.418372    0.375476    0.000000
C90    C    0.277049    0.472234    0.431131    0.000000
C91    C    0.223453    0.037279    0.484948    0.000000
C92    C    0.277322    0.471731    0.320349    0.000000
C93    C    0.333902    0.418107    0.375548    0.000000
C94    C    0.444862    0.473875    0.431154    0.000000
C95    C    0.392014    0.039071    0.485518    0.000000
C96    C    0.444693    0.472844    0.320201    0.000000
C97    C    0.000712    0.084928    0.375532    0.000000
C98    C    0.111395    0.140091    0.431252    0.000000
C99    C    0.058325    0.205582    0.485735    0.000000
C100    C    0.111269    0.140949    0.320162    0.000000
C101    C    0.166920    0.085004    0.375725    0.000000
C102    C    0.278744    0.141125    0.430698    0.000000
C103    C    0.224277    0.204347    0.482896    0.000000
C104    C    0.277888    0.139015    0.320339    0.000000
C105    C    0.332990    0.083534    0.375738    0.000000
C106    C    0.444595    0.140016    0.429669    0.000000
C107    C    0.390452    0.202509    0.480055    0.000000
C108    C    0.444417    0.140817    0.320400    0.000000
C109    C    0.500698    0.251611    0.375544    0.000000
C110    C    0.610192    0.304837    0.431444    0.000000
C111    C    0.556437    0.370504    0.485341    0.000000
C112    C    0.611231    0.305437    0.320247    0.000000
C113    C    0.667410    0.251469    0.375536    0.000000
C114    C    0.778018    0.306802    0.431225    0.000000
C115    C    0.725209    0.372620    0.485387    0.000000
C116    C    0.777897    0.307312    0.320144    0.000000
C117    C    0.833866    0.251890    0.375807    0.000000
C118    C    0.945787    0.308170    0.431077    0.000000
C119    C    0.891122    0.371761    0.483318    0.000000
C120    C    0.944582    0.305650    0.320246    0.000000
C121    C    0.500334    0.418210    0.375941    0.000000
C122    C    0.612504    0.474740    0.430997    0.000000
C123    C    0.558109    0.038461    0.483577    0.000000
C124    C    0.611075    0.471738    0.320357    0.000000
C125    C    0.666317    0.416839    0.375852    0.000000
C126    C    0.778221    0.473879    0.429613    0.000000
C127    C    0.723769    0.035801    0.480607    0.000000
C128    C    0.777480    0.473637    0.320356    0.000000
C129    C    0.833539    0.417656    0.375267    0.000000
C130    C    0.944838    0.473945    0.429233    0.000000
C131    C    0.891571    0.037992    0.478402    0.000000
C132    C    0.944296    0.472420    0.319986    0.000000
C133    C    0.500244    0.084194    0.375263    0.000000
C134    C    0.611474    0.140242    0.429333    0.000000
C135    C    0.558502    0.204728    0.478740    0.000000
C136    C    0.611349    0.139115    0.320169    0.000000
C137    C    0.667481    0.084255    0.375209    0.000000
C138    C    0.777983    0.140172    0.430375    0.000000
C139    C    0.724239    0.203862    0.480624    0.000000
C140    C    0.778328    0.141428    0.320197    0.000000
C141    C    0.834040    0.085062    0.375335    0.000000
C142    C    0.943340    0.138077    0.431372    0.000000
C143    C    0.889704    0.203651    0.484870    0.000000
C144    C    0.944610    0.139085    0.320168    0.000000
H1    H    0.267959    0.862292    0.261245    0.000000
H2    H    0.431063    0.913789    0.260836    0.000000
H3    H    0.622830    0.877584    0.263558    0.000000
H4    H    0.264532    0.702771    0.260386    0.000000
H5    H    0.770609    0.912941    0.261637    0.000000
H6    H    0.946792    0.875920    0.262278    0.000000
H7    H    0.103075    0.912467    0.261709    0.000000
H8    H    0.764707    0.574988    0.261267    0.000000
H9    H    0.929757    0.531615    0.259945    0.000000
H10    H    0.098394    0.577315    0.261296    0.000000
H11    H    0.669848    0.695256    0.262002    0.000000
H12    H    0.867762    0.730366    0.261032    0.000000
H13    H    0.103505    0.743052    0.260951    0.000000
H14    H    0.264164    0.364059    0.260756    0.000000
H15    H    0.430853    0.411427    0.261431    0.000000
H16    H    0.599458    0.356049    0.261614    0.000000
H17    H    0.266426    0.025436    0.261317    0.000000
H18    H    0.432852    0.079681    0.261582    0.000000
H19    H    0.599672    0.025306    0.261194    0.000000
H20    H    0.265935    0.191623    0.261371    0.000000
H21    H    0.431848    0.245059    0.261718    0.000000
H22    H    0.598640    0.190583    0.261485    0.000000
H23    H    0.765316    0.410599    0.261539    0.000000
H24    H    0.932723    0.359046    0.261210    0.000000
H25    H    0.100841    0.410053    0.261607    0.000000
H26    H    0.767858    0.078973    0.261712    0.000000
H27    H    0.932750    0.024776    0.261468    0.000000
H28    H    0.099246    0.077144    0.261373    0.000000
H29    H    0.765528    0.243906    0.261379    0.000000
H30    H    0.933046    0.191389    0.261423    0.000000
H31    H    0.099582    0.244380    0.261665    0.000000
H32    H    0.600670    0.520368    0.261952    0.000000
H33    H    0.481091    0.659132    0.201241    0.000000
H34    H    0.546320    0.752246    0.197301    0.000000
O1    O    0.211834    0.350493    0.270501    0.000000
O2    O    0.383553    0.361881    0.270092    0.000000
O3    O    0.549075    0.351806    0.270286    0.000000
O4    O    0.215991    0.020656    0.270140    0.000000
O5    O    0.382826    0.032685    0.270119    0.000000
O6    O    0.549011    0.019752    0.270099    0.000000
O7    O    0.215116    0.185491    0.270338    0.000000
O8    O    0.382386    0.197837    0.270436    0.000000
O9    O    0.548273    0.185829    0.270368    0.000000
O10    O    0.715453    0.363837    0.270286    0.000000
O11    O    0.881660    0.352102    0.270248    0.000000
O12    O    0.049638    0.365066    0.270391    0.000000
O13    O    0.717089    0.032873    0.270254    0.000000
O14    O    0.882133    0.019664    0.270279    0.000000
O15    O    0.048631    0.031658    0.270204    0.000000
O16    O    0.715363    0.197764    0.270185    0.000000
O17    O    0.882363    0.186172    0.270221    0.000000
O18    O    0.048962    0.198249    0.270301    0.000000
O19    O    0.216681    0.855797    0.269959    0.000000
O20    O    0.381256    0.867142    0.269589    0.000000
O21    O    0.565433    0.863938    0.269007    0.000000
O22    O    0.217828    0.519992    0.270044    0.000000
O23    O    0.211981    0.687821    0.270239    0.000000
O24    O    0.717859    0.868459    0.269717    0.000000
O25    O    0.890497    0.857716    0.269730    0.000000
O26    O    0.051243    0.867434    0.270049    0.000000
O27    O    0.715410    0.528557    0.270339    0.000000
O28    O    0.877946    0.517805    0.270097    0.000000
O29    O    0.048804    0.530610    0.270116    0.000000
O30    O    0.717299    0.691011    0.269673    0.000000
O31    O    0.881457    0.690240    0.269537    0.000000
O32    O    0.053821    0.696719    0.269737    0.000000
O33    O    0.370914    0.706332    0.268961    0.000000
O34    O    0.561877    0.689628    0.269567    0.000000
O35    O    0.385302    0.515160    0.269334    0.000000
O36    O    0.550047    0.516615    0.270179    0.000000
O37    O    0.490847    0.714968    0.204939    0.000000
Pd1    Pd    0.339895    0.588327    0.258696    0.000000
Pd2    Pd    0.483008    0.726903    0.253431    0.000000

loop_
_geom_bond_atom_site_label_1
_geom_bond_atom_site_label_2
_geom_bond_distance
Si1    Si13    0.16699
Si1    Si25    0.16712
Si1    C73    0.04207
Si1    C74    0.12505
Si1    C118    0.07970
Si1    C142    0.12758
Si2    Si26    0.16679
Si2    Si86    0.16617
Si2    C76    0.07992
Si2    C88    0.12465
Si2    C120    0.12572
Si2    O12    0.03702
Si3    Si15    0.16960
Si3    Si27    0.16235
Si3    C74    0.04238
Si3    C75    0.07959
Si3    C79    0.12797
Si3    C99    0.11965
Si4    Si16    0.16708
Si4    Si28    0.16636
Si4    C73    0.12590
Si4    C76    0.04158
Si4    C77    0.08006
Si4    C89    0.12539
Si5    Si17    0.16586
Si5    Si29    0.16669
Si5    C74    0.07953
Si5    C77    0.04171
Si5    C78    0.12462
Si5    C98    0.12570
Si6    Si30    0.16648
Si6    Si90    0.16624
Si6    C76    0.12381
Si6    C80    0.08004
Si6    C92    0.12490
Si6    O1    0.03902
Si7    Si19    0.17144
Si7    Si31    0.16711
Si7    C78    0.04267
Si7    C79    0.08025
Si7    C83    0.12507
Si7    C103    0.12273
Si8    Si20    0.16638
Si8    Si32    0.16687
Si8    C77    0.12516
Si8    C80    0.04164
Si8    C81    0.07982
Si8    C93    0.12535
Si9    Si21    0.16643
Si9    Si33    0.16688
Si9    C78    0.07975
Si9    C81    0.04165
Si9    C82    0.12421
Si9    C102    0.12410
Si10    Si34    0.16592
Si10    Si94    0.16383
Si10    C80    0.12516
Si10    C84    0.07982
Si10    C96    0.12460
Si10    O2    0.03684
Si11    Si23    0.16785
Si11    Si35    0.17013
Si11    C82    0.04489
Si11    C83    0.07976
Si11    C107    0.12666
Si11    C111    0.12227
Si12    Si24    0.16616
Si12    Si36    0.16703
Si12    C81    0.12524
Si12    C84    0.04153
Si12    C109    0.07980
Si12    C121    0.12470
Si13    Si97    0.16609
Si13    C85    0.04166
Si13    C86    0.12433
Si13    C118    0.12403
Si13    C130    0.07972
Si14    Si26    0.16646
Si14    Si74    0.16675
Si14    C16    0.07996
Si14    C60    0.12532
Si14    C100    0.12489
Si14    O15    0.03720
Si15    Si99    0.16893
Si15    C15    0.07998
Si15    C19    0.12260
Si15    C75    0.12608
Si15    C86    0.04400
Si16    Si100    0.16625
Si16    C29    0.12488
Si16    C85    0.12539
Si16    C88    0.04146
Si16    C89    0.07973
Si17    Si101    0.16768
Si17    C74    0.12404
Si17    C86    0.07976
Si17    C89    0.04167
Si17    C90    0.12409
Si18    Si30    0.16642
Si18    Si78    0.16663
Si18    C16    0.12344
Si18    C20    0.07976
Si18    C104    0.12508
Si18    O4    0.03775
Si19    Si103    0.16252
Si19    C19    0.07887
Si19    C23    0.12332
Si19    C79    0.12676
Si19    C90    0.04785
Si20    Si104    0.16661
Si20    C33    0.12455
Si20    C89    0.12419
Si20    C92    0.04125
Si20    C93    0.07961
Si21    Si105    0.16712
Si21    C78    0.12445
Si21    C90    0.07966
Si21    C93    0.04191
Si21    C94    0.12527
Si22    Si34    0.16632
Si22    Si82    0.16629
Si22    C20    0.12536
Si22    C24    0.08011
Si22    C108    0.12472
Si22    O5    0.03707
Si23    Si107    0.16238
Si23    C23    0.07873
Si23    C51    0.12440
Si23    C83    0.12559
Si23    C94    0.04669
Si24    Si108    0.16619
Si24    C61    0.12447
Si24    C93    0.12457
Si24    C96    0.04139
Si24    C121    0.07973
Si25    Si85    0.16625
Si25    C58    0.12456
Si25    C97    0.04191
Si25    C98    0.12505
Si25    C142    0.07953
Si26    C76    0.12453
Si26    C100    0.08003
Si26    C144    0.12537
Si26    O18    0.03709
Si27    Si87    0.16785
Si27    C87    0.12572
Si27    C98    0.04680
Si27    C99    0.07856
Si27    C103    0.12444
Si28    Si88    0.16650
Si28    C77    0.12441
Si28    C97    0.12479
Si28    C100    0.04157
Si28    C101    0.07972
Si29    Si89    0.16776
Si29    C14    0.12576
Si29    C98    0.07944
Si29    C101    0.04203
Si29    C102    0.12553
Si30    C80    0.12530
Si30    C100    0.12364
Si30    C104    0.07983
Si30    O7    0.03815
Si31    Si91    0.16113
Si31    C91    0.12187
Si31    C102    0.04396
Si31    C103    0.07930
Si31    C107    0.12652
Si32    Si92    0.16654
Si32    C81    0.12537
Si32    C101    0.12457
Si32    C104    0.04160
Si32    C105    0.07980
Si33    Si93    0.16699
Si33    C18    0.12741
Si33    C102    0.07965
Si33    C105    0.04199
Si33    C106    0.12491
Si34    C84    0.12499
Si34    C104    0.12546
Si34    C108    0.07994
Si34    O8    0.03707
Si35    Si95    0.16147
Si35    C95    0.11945
Si35    C106    0.04237
Si35    C107    0.07967
Si35    C135    0.12826
Si36    Si96    0.16636
Si36    C105    0.12592
Si36    C108    0.04165
Si36    C109    0.12544
Si36    C133    0.08009
Si37    Si49    0.16791
Si37    Si61    0.16585
Si37    C82    0.07969
Si37    C106    0.12428
Si37    C109    0.04177
Si37    C110    0.12379
Si38    Si62    0.16646
Si38    Si122    0.16644
Si38    C84    0.12339
Si38    C112    0.07977
Si38    C124    0.12510
Si38    O3    0.03803
Si39    Si51    0.16141
Si39    C110    0.04857
Si39    C111    0.07870
Si39    C115    0.12327
Si39    C135    0.12674
Si40    Si52    0.16641
Si40    Si64    0.16650
Si40    C109    0.12430
Si40    C112    0.04155
Si40    C113    0.07956
Si40    C125    0.12418
Si41    Si53    0.16706
Si41    Si65    0.16607
Si41    C110    0.07952
Si41    C113    0.04192
Si41    C114    0.12501
Si41    C134    0.12446
Si42    Si66    0.16627
Si42    Si126    0.16646
Si42    C112    0.12527
Si42    C116    0.08003
Si42    C128    0.12479
Si42    O10    0.03708
Si43    Si55    0.16223
Si43    Si67    0.16878
Si43    C114    0.04679
Si43    C115    0.07864
Si43    C119    0.12427
Si43    C139    0.12589
Si44    Si56    0.16626
Si44    Si68    0.16629
Si44    C113    0.12477
Si44    C116    0.04157
Si44    C117    0.07969
Si44    C129    0.12432
Si45    Si57    0.16653
Si45    Si69    0.16784
Si45    C114    0.07947
Si45    C117    0.04208
Si45    C118    0.12588
Si45    C138    0.12561
Si46    Si70    0.16639
Si46    Si130    0.16634
Si46    C116    0.12371
Si46    C120    0.07981
Si46    C132    0.12537
Si46    O11    0.03815
Si47    Si59    0.16649
Si47    Si71    0.16181
Si47    C75    0.12617
Si47    C118    0.04478
Si47    C119    0.07935
Si47    C143    0.12276
Si48    Si60    0.16672
Si48    Si72    0.16660
Si48    C73    0.07969
Si48    C85    0.12517
Si48    C117    0.12442
Si48    C120    0.04165
Si49    Si133    0.16661
Si49    C82    0.12606
Si49    C94    0.07959
Si49    C121    0.04208
Si49    C122    0.12588
Si50    Si62    0.16634
Si50    Si110    0.16582
Si50    C24    0.12371
Si50    C52    0.07980
Si50    C136    0.12527
Si50    O6    0.03797
Si51    Si135    0.16651
Si51    C51    0.07937
Si51    C55    0.12631
Si51    C111    0.12232
Si51    C122    0.04460
Si52    Si136    0.16679
Si52    C65    0.12518
Si52    C121    0.12432
Si52    C124    0.04152
Si52    C125    0.07976
Si53    Si137    0.16674
Si53    C110    0.12735
Si53    C122    0.07966
Si53    C125    0.04203
Si53    C126    0.12509
Si54    Si66    0.16605
Si54    Si114    0.16750
Si54    C52    0.12568
Si54    C56    0.07999
Si54    C140    0.12484
Si54    O13    0.03707
Si55    Si139    0.16909
Si55    C55    0.07947
Si55    C59    0.12796
Si55    C115    0.11961
Si55    C126    0.04239
Si56    Si140    0.16704
Si56    C69    0.12566
Si56    C125    0.12578
Si56    C128    0.04154
Si56    C129    0.07998
Si57    Si141    0.16582
Si57    C114    0.12565
Si57    C126    0.07953
Si57    C129    0.04166
Si57    C130    0.12471
Si58    Si70    0.16682
Si58    Si118    0.16621
Si58    C56    0.12378
Si58    C60    0.07962
Si58    C144    0.12536
Si58    O14    0.03801
Si59    Si143    0.17180
Si59    C15    0.12550
Si59    C59    0.08028
Si59    C119    0.12188
Si59    C130    0.04247
Si60    Si144    0.16669
Si60    C25    0.12550
Si60    C85    0.07982
Si60    C129    0.12514
Si60    C132    0.04164
Si61    Si121    0.16651
Si61    C22    0.12609
Si61    C106    0.07953
Si61    C133    0.04173
Si61    C134    0.12468
Si62    C108    0.12362
Si62    C112    0.12534
Si62    C136    0.07981
Si62    O9    0.03809
Si63    Si123    0.16586
Si63    C123    0.12158
Si63    C134    0.04250
Si63    C135    0.08050
Si63    C139    0.12547
Si64    Si124    0.16658
Si64    C113    0.12550
Si64    C133    0.12534
Si64    C136    0.04167
Si64    C137    0.07982
Si65    Si125    0.16693
Si65    C50    0.12457
Si65    C134    0.07969
Si65    C137    0.04170
Si65    C138    0.12429
Si66    C116    0.12481
Si66    C136    0.12540
Si66    C140    0.07992
Si66    O16    0.03715
Si67    Si127    0.16958
Si67    C127    0.12617
Si67    C138    0.04428
Si67    C139    0.08000
Si67    C143    0.12254
Si68    Si128    0.16727
Si68    C117    0.12477
Si68    C137    0.12549
Si68    C140    0.04161
Si68    C141    0.07977
Si69    Si129    0.16586
Si69    C54    0.12417
Si69    C138    0.07971
Si69    C141    0.04175
Si69    C142    0.12363
Si70    C120    0.12504
Si70    C140    0.12339
Si70    C144    0.07971
Si70    O17    0.03803
Si71    C99    0.12287
Si71    C131    0.12691
Si71    C142    0.04859
Si71    C143    0.07872
Si72    Si132    0.16663
Si72    C73    0.12413
Si72    C97    0.07953
Si72    C141    0.12439
Si72    C144    0.04159
Si73    Si85    0.16679
Si73    Si97    0.16677
Si73    C1    0.04202
Si73    C2    0.12488
Si73    C46    0.07961
Si73    C70    0.12689
Si74    Si98    0.16702
Si74    C4    0.07990
Si74    C16    0.12537
Si74    C48    0.12544
Si74    O26    0.03694
Si75    Si87    0.16972
Si75    Si99    0.16189
Si75    C2    0.04231
Si75    C3    0.07946
Si75    C7    0.12837
Si75    C27    0.11942
Si76    Si88    0.16722
Si76    Si100    0.16660
Si76    C1    0.12593
Si76    C4    0.04166
Si76    C5    0.08002
Si76    C17    0.12556
Si77    Si89    0.16572
Si77    Si101    0.16630
Si77    C2    0.07948
Si77    C5    0.04166
Si77    C6    0.12465
Si77    C26    0.12553
Si78    Si102    0.16726
Si78    C4    0.12389
Si78    C8    0.07988
Si78    C20    0.12545
Si78    O19    0.03731
Si79    Si103    0.16591
Si79    C6    0.04246
Si79    C7    0.08045
Si79    C11    0.12593
Si79    C31    0.12146
Si80    Si92    0.16654
Si80    Si104    0.16707
Si80    C5    0.12523
Si80    C8    0.04162
Si80    C9    0.07992
Si80    C21    0.12548
Si81    Si93    0.16575
Si81    Si105    0.16685
Si81    C6    0.07967
Si81    C9    0.04172
Si81    C10    0.12425
Si81    C30    0.12404
Si82    Si106    0.16733
Si82    C8    0.12535
Si82    C12    0.08047
Si82    C24    0.12480
Si82    O20    0.03733
Si83    Si95    0.16959
Si83    Si107    0.16895
Si83    C10    0.04347
Si83    C11    0.08007
Si83    C35    0.12565
Si83    C39    0.12257
Si84    Si96    0.16648
Si84    Si108    0.16780
Si84    C9    0.12532
Si84    C12    0.04217
Si84    C37    0.07975
Si84    C49    0.12479
Si85    C13    0.04167
Si85    C14    0.12427
Si85    C46    0.12430
Si85    C58    0.07975
Si86    Si98    0.16681
Si86    C28    0.12460
Si86    C88    0.07980
Si86    C132    0.12541
Si86    O29    0.03701
Si87    C3    0.12656
Si87    C14    0.04476
Si87    C87    0.07989
Si87    C91    0.12264
Si88    C13    0.12527
Si88    C16    0.04154
Si88    C17    0.07979
Si88    C101    0.12464
Si89    C2    0.12417
Si89    C14    0.07962
Si89    C17    0.04178
Si89    C18    0.12359
Si90    Si102    0.16698
Si90    C32    0.12538
Si90    C88    0.12351
Si90    C92    0.07976
Si90    O22    0.03705
Si91    C7    0.12690
Si91    C18    0.04883
Si91    C91    0.07866
Si91    C95    0.12299
Si92    C17    0.12438
Si92    C20    0.04152
Si92    C21    0.07958
Si92    C105    0.12409
Si93    C6    0.12443
Si93    C18    0.07952
Si93    C21    0.04191
Si93    C22    0.12462
Si94    Si106    0.17034
Si94    C36    0.12697
Si94    C92    0.12387
Si94    C96    0.07952
Si94    O35    0.03794
Si94    Pd1    0.09126
Si95    C11    0.12625
Si95    C22    0.04754
Si95    C95    0.07850
Si95    C123    0.12391
Si96    C21    0.12475
Si96    C24    0.04156
Si96    C49    0.07980
Si96    C133    0.12424
Si97    C25    0.04196
Si97    C26    0.12496
Si97    C70    0.07952
Si97    C130    0.12424
Si98    C4    0.12513
Si98    C28    0.07980
Si98    C72    0.12578
Si98    O32    0.03622
Si99    C15    0.12602
Si99    C26    0.04693
Si99    C27    0.07866
Si99    C31    0.12422
Si100    C5    0.12475
Si100    C25    0.12472
Si100    C28    0.04133
Si100    C29    0.07967
Si101    C26    0.07951
Si101    C29    0.04199
Si101    C30    0.12611
Si101    C86    0.12546
Si102    C8    0.12663
Si102    C28    0.12329
Si102    C32    0.07963
Si102    O23    0.03801
Si103    C19    0.12308
Si103    C30    0.04518
Si103    C31    0.07928
Si103    C35    0.12593
Si104    C9    0.12585
Si104    C29    0.12405
Si104    C32    0.04136
Si104    C33    0.07971
Si105    C30    0.07960
Si105    C33    0.04207
Si105    C34    0.12496
Si105    C90    0.12695
Si106    C12    0.12743
Si106    C32    0.12495
Si106    C36    0.08135
Si106    O33    0.04131
Si106    Pd1    0.12693
Si106    Pd2    0.11406
Si107    C23    0.11955
Si107    C34    0.04230
Si107    C35    0.07949
Si107    C63    0.12788
Si108    C33    0.12512
Si108    C36    0.04210
Si108    C37    0.12595
Si108    C61    0.07980
Si109    Si121    0.16754
Si109    Si133    0.16560
Si109    C10    0.07961
Si109    C34    0.12359
Si109    C37    0.04185
Si109    C38    0.12373
Si110    Si134    0.16821
Si110    C12    0.12455
Si110    C40    0.07924
Si110    C52    0.12420
Si110    O21    0.03814
Si111    Si123    0.16279
Si111    Si135    0.17167
Si111    C38    0.04809
Si111    C39    0.07896
Si111    C43    0.12303
Si111    C63    0.12699
Si112    Si124    0.16695
Si112    Si136    0.16678
Si112    C37    0.12465
Si112    C40    0.04142
Si112    C41    0.07947
Si112    C53    0.12426
Si113    Si125    0.16697
Si113    Si137    0.16624
Si113    C38    0.07965
Si113    C41    0.04194
Si113    C42    0.12467
Si113    C62    0.12454
Si114    Si138    0.16839
Si114    C40    0.12532
Si114    C44    0.08006
Si114    C56    0.12506
Si114    O24    0.03729
Si115    Si127    0.16172
Si115    Si139    0.16895
Si115    C42    0.04736
Si115    C43    0.07855
Si115    C47    0.12409
Si115    C67    0.12607
Si116    Si128    0.16665
Si116    Si140    0.16650
Si116    C41    0.12464
Si116    C44    0.04184
Si116    C45    0.07949
Si116    C57    0.12428
Si117    Si129    0.16642
Si117    Si141    0.16754
Si117    C42    0.07938
Si117    C45    0.04200
Si117    C46    0.12540
Si117    C66    0.12536
Si118    Si142    0.16651
Si118    C44    0.12474
Si118    C48    0.07957
Si118    C60    0.12505
Si118    O25    0.03675
Si119    Si131    0.16622
Si119    Si143    0.16201
Si119    C3    0.12609
Si119    C46    0.04439
Si119    C47    0.07917
Si119    C71    0.12284
Si120    Si132    0.16681
Si120    Si144    0.16656
Si120    C1    0.07972
Si120    C13    0.12532
Si120    C45    0.12457
Si120    C48    0.04151
Si121    C10    0.12501
Si121    C22    0.07938
Si121    C49    0.04206
Si121    C50    0.12537
Si122    Si134    0.16676
Si122    C64    0.12515
Si122    C96    0.12376
Si122    C124    0.07993
Si122    O36    0.03809
Si123    C39    0.12361
Si123    C50    0.04487
Si123    C123    0.07910
Si123    C127    0.12572
Si124    C49    0.12464
Si124    C52    0.04159
Si124    C53    0.07965
Si124    C137    0.12498
Si125    C38    0.12716
Si125    C50    0.07961
Si125    C53    0.04199
Si125    C54    0.12487
Si126    Si138    0.16536
Si126    C68    0.12526
Si126    C124    0.12538
Si126    C128    0.07993
Si126    O27    0.03707
Si127    C43    0.11939
Si127    C54    0.04229
Si127    C127    0.07939
Si127    C131    0.12851
Si128    C53    0.12596
Si128    C56    0.04164
Si128    C57    0.08007
Si128    C141    0.12550
Si129    C42    0.12584
Si129    C54    0.07952
Si129    C57    0.04177
Si129    C58    0.12465
Si130    Si142    0.16773
Si130    C72    0.12599
Si130    C128    0.12350
Si130    C132    0.07983
Si130    O28    0.03883
Si131    C47    0.12200
Si131    C58    0.04253
Si131    C87    0.12499
Si131    C131    0.08058
Si132    C13    0.07983
Si132    C57    0.12556
Si132    C60    0.04156
Si132    C97    0.12553
Si133    C34    0.07942
Si133    C61    0.04171
Si133    C62    0.12456
Si133    C94    0.12515
Si134    C36    0.12558
Si134    C40    0.12600
Si134    C64    0.07939
Si134    O34    0.03653
Si134    Pd2    0.09517
Si135    C51    0.12194
Si135    C62    0.04252
Si135    C63    0.08014
Si135    C67    0.12565
Si136    C41    0.12605
Si136    C61    0.12506
Si136    C64    0.04131
Si136    C65    0.07989
Si137    C62    0.07981
Si137    C65    0.04159
Si137    C66    0.12458
Si137    C122    0.12370
Si138    C44    0.12676
Si138    C64    0.12450
Si138    C68    0.07961
Si138    O30    0.03666
Si139    C55    0.12597
Si139    C66    0.04394
Si139    C67    0.08003
Si139    C71    0.12264
Si140    C45    0.12526
Si140    C65    0.12526
Si140    C68    0.04139
Si140    C69    0.07991
Si141    C66    0.07970
Si141    C69    0.04176
Si141    C70    0.12377
Si141    C126    0.12395
Si142    C48    0.12546
Si142    C68    0.12396
Si142    C72    0.07998
Si142    O31    0.03729
Si143    C27    0.12324
Si143    C59    0.12679
Si143    C70    0.04817
Si143    C71    0.07883
Si144    C1    0.12419
Si144    C25    0.07954
Si144    C69    0.12416
Si144    C72    0.04192
H1    O19    0.05242
H2    O20    0.06880
H3    O21    0.05925
H4    O23    0.05552
H5    O24    0.06947
H6    O25    0.05963
H7    O26    0.06917
H8    O27    0.06833
H9    O28    0.05457
H10    O29    0.06869
H11    O30    0.04825
H12    O31    0.04324
H13    O32    0.06850
H14    O1    0.05493
H15    O2    0.06904
H16    O3    0.05130
H17    O4    0.05142
H18    O5    0.06917
H19    O6    0.05174
H20    O7    0.05197
H21    O8    0.06894
H22    O9    0.05136
H23    O10    0.06892
H24    O11    0.05232
H25    O12    0.06872
H26    O13    0.06911
H27    O14    0.05163
H28    O15    0.06862
H29    O16    0.06873
H30    O17    0.05171
H31    O18    0.06903
H32    O36    0.05142
H33    O37    0.05680
H34    O37    0.06727
O21    Pd2    0.16067
O22    Pd1    0.14035
O33    Pd1    0.12244
O33    Pd2    0.11502
O34    Pd2    0.08871
O35    Pd1    0.08677
O37    Pd2    0.05055
Pd1    Pd2    0.19928
