data_new_xtal_PM
_symmetry_space_group_name_H-M    'P1'
_cell_length_a    14.268000
_cell_length_b    14.268000
_cell_length_c    14.268000
_cell_angle_alpha    90.000000
_cell_angle_beta    90.000000
_cell_angle_gamma    90.000000
_symmetry_Int_Tables_number 1

loop_
_symmetry_equiv_pos_as_xyz
'x,y,z'

loop_
_atom_site_label
_atom_site_type_symbol
_atom_site_fract_x
_atom_site_fract_y
_atom_site_fract_z
C1    C    0.000000    0.000000    0.000000
C2    C    0.187500    0.062500    0.187500
C3    C    0.125000    0.000000    0.125000
C4    C    0.187500    0.187500    0.062500
C5    C    0.125000    0.125000    0.000000
C6    C    0.062500    0.062500    0.312500
C7    C    0.000000    0.000000    0.250000
C8    C    0.062500    0.187500    0.437500
C9    C    0.000000    0.125000    0.375000
C10    C    0.187500    0.062500    0.437500
C11    C    0.125000    0.000000    0.375000
C12    C    0.187500    0.187500    0.312500
C13    C    0.125000    0.125000    0.250000
C14    C    0.062500    0.312500    0.062500
C15    C    0.000000    0.250000    0.000000
C16    C    0.062500    0.437500    0.187500
C17    C    0.000000    0.375000    0.125000
C18    C    0.187500    0.312500    0.187500
C19    C    0.125000    0.250000    0.125000
C20    C    0.187500    0.437500    0.062500
C21    C    0.125000    0.375000    0.000000
C22    C    0.062500    0.312500    0.312500
C23    C    0.000000    0.250000    0.250000
C24    C    0.062500    0.437500    0.437500
C25    C    0.000000    0.375000    0.375000
C26    C    0.187500    0.312500    0.437500
C27    C    0.125000    0.250000    0.375000
C28    C    0.187500    0.437500    0.312500
C29    C    0.125000    0.375000    0.250000
C30    C    0.312500    0.062500    0.062500
C31    C    0.250000    0.000000    0.000000
C32    C    0.312500    0.187500    0.187500
C33    C    0.250000    0.125000    0.125000
C34    C    0.375000    0.000000    0.125000
C35    C    0.375000    0.125000    0.000000
C36    C    0.312500    0.062500    0.312500
C37    C    0.250000    0.000000    0.250000
C38    C    0.312500    0.187500    0.437500
C39    C    0.250000    0.125000    0.375000
C40    C    0.437500    0.062500    0.437500
C41    C    0.375000    0.000000    0.375000
C42    C    0.437500    0.187500    0.312500
C43    C    0.375000    0.125000    0.250000
C44    C    0.312500    0.312500    0.062500
C45    C    0.250000    0.250000    0.000000
C46    C    0.312500    0.437500    0.187500
C47    C    0.250000    0.375000    0.125000
C48    C    0.437500    0.312500    0.187500
C49    C    0.375000    0.250000    0.125000
C50    C    0.437500    0.437500    0.062500
C51    C    0.375000    0.375000    0.000000
C52    C    0.312500    0.312500    0.312500
C53    C    0.250000    0.250000    0.250000
C54    C    0.312500    0.437500    0.437500
C55    C    0.250000    0.375000    0.375000
C56    C    0.437500    0.312500    0.437500
C57    C    0.375000    0.250000    0.375000
C58    C    0.437500    0.437500    0.312500
C59    C    0.375000    0.375000    0.250000
N1    N    0.000004    0.125004    0.125004
C60    C    0.062500    0.062500    0.062500
C61    C    0.437500    0.062500    0.187500
C62    C    0.062500    0.187500    0.187500
C63    C    0.000000    0.000000    0.500000
C64    C    0.187500    0.062500    0.687500
C65    C    0.125000    0.000000    0.625000
C66    C    0.187500    0.187500    0.562500
C67    C    0.125000    0.125000    0.500000
C68    C    0.062500    0.062500    0.812500
C69    C    0.000000    0.000000    0.750000
C70    C    0.062500    0.187500    0.937500
C71    C    0.000000    0.125000    0.875000
C72    C    0.187500    0.062500    0.937500
C73    C    0.125000    0.000000    0.875000
C74    C    0.187500    0.187500    0.812500
C75    C    0.125000    0.125000    0.750000
C76    C    0.062500    0.312500    0.562500
C77    C    0.000000    0.250000    0.500000
C78    C    0.062500    0.437500    0.687500
C79    C    0.000000    0.375000    0.625000
C80    C    0.187500    0.312500    0.687500
C81    C    0.125000    0.250000    0.625000
C82    C    0.187500    0.437500    0.562500
C83    C    0.125000    0.375000    0.500000
C84    C    0.062500    0.312500    0.812500
C85    C    0.000000    0.250000    0.750000
C86    C    0.062500    0.437500    0.937500
C87    C    0.000000    0.375000    0.875000
C88    C    0.187500    0.312500    0.937500
C89    C    0.125000    0.250000    0.875000
C90    C    0.187500    0.437500    0.812500
C91    C    0.125000    0.375000    0.750000
C92    C    0.312500    0.062500    0.562500
C93    C    0.250000    0.000000    0.500000
C94    C    0.312500    0.187500    0.687500
C95    C    0.250000    0.125000    0.625000
C96    C    0.375000    0.000000    0.625000
C97    C    0.375000    0.125000    0.500000
C98    C    0.312500    0.062500    0.812500
C99    C    0.250000    0.000000    0.750000
C100    C    0.312500    0.187500    0.937500
C101    C    0.250000    0.125000    0.875000
C102    C    0.437500    0.062500    0.937500
C103    C    0.375000    0.000000    0.875000
C104    C    0.437500    0.187500    0.812500
C105    C    0.375000    0.125000    0.750000
C106    C    0.312500    0.312500    0.562500
C107    C    0.250000    0.250000    0.500000
C108    C    0.312500    0.437500    0.687500
C109    C    0.250000    0.375000    0.625000
C110    C    0.437500    0.312500    0.687500
C111    C    0.375000    0.250000    0.625000
C112    C    0.437500    0.437500    0.562500
C113    C    0.375000    0.375000    0.500000
C114    C    0.312500    0.312500    0.812500
C115    C    0.250000    0.250000    0.750000
C116    C    0.312500    0.437500    0.937500
C117    C    0.250000    0.375000    0.875000
C118    C    0.437500    0.312500    0.937500
C119    C    0.375000    0.250000    0.875000
C120    C    0.437500    0.437500    0.812500
C121    C    0.375000    0.375000    0.750000
N2    N    0.000004    0.125004    0.625004
C122    C    0.062500    0.062500    0.562500
C123    C    0.437500    0.062500    0.687500
C124    C    0.062500    0.187500    0.687500
C125    C    0.000000    0.500000    0.000000
C126    C    0.187500    0.562500    0.187500
C127    C    0.125000    0.500000    0.125000
C128    C    0.187500    0.687500    0.062500
C129    C    0.125000    0.625000    0.000000
C130    C    0.062500    0.562500    0.312500
C131    C    0.000000    0.500000    0.250000
C132    C    0.062500    0.687500    0.437500
C133    C    0.000000    0.625000    0.375000
C134    C    0.187500    0.562500    0.437500
C135    C    0.125000    0.500000    0.375000
C136    C    0.187500    0.687500    0.312500
C137    C    0.125000    0.625000    0.250000
C138    C    0.062500    0.812500    0.062500
C139    C    0.000000    0.750000    0.000000
C140    C    0.062500    0.937500    0.187500
C141    C    0.000000    0.875000    0.125000
C142    C    0.187500    0.812500    0.187500
C143    C    0.125000    0.750000    0.125000
C144    C    0.187500    0.937500    0.062500
C145    C    0.125000    0.875000    0.000000
C146    C    0.062500    0.812500    0.312500
C147    C    0.000000    0.750000    0.250000
C148    C    0.062500    0.937500    0.437500
C149    C    0.000000    0.875000    0.375000
C150    C    0.187500    0.812500    0.437500
C151    C    0.125000    0.750000    0.375000
C152    C    0.187500    0.937500    0.312500
C153    C    0.125000    0.875000    0.250000
C154    C    0.312500    0.562500    0.062500
C155    C    0.250000    0.500000    0.000000
C156    C    0.312500    0.687500    0.187500
C157    C    0.250000    0.625000    0.125000
C158    C    0.375000    0.500000    0.125000
C159    C    0.375000    0.625000    0.000000
C160    C    0.312500    0.562500    0.312500
C161    C    0.250000    0.500000    0.250000
C162    C    0.312500    0.687500    0.437500
C163    C    0.250000    0.625000    0.375000
C164    C    0.437500    0.562500    0.437500
C165    C    0.375000    0.500000    0.375000
C166    C    0.437500    0.687500    0.312500
C167    C    0.375000    0.625000    0.250000
C168    C    0.312500    0.812500    0.062500
C169    C    0.250000    0.750000    0.000000
C170    C    0.312500    0.937500    0.187500
C171    C    0.250000    0.875000    0.125000
C172    C    0.437500    0.812500    0.187500
C173    C    0.375000    0.750000    0.125000
C174    C    0.437500    0.937500    0.062500
C175    C    0.375000    0.875000    0.000000
C176    C    0.312500    0.812500    0.312500
C177    C    0.250000    0.750000    0.250000
C178    C    0.312500    0.937500    0.437500
C179    C    0.250000    0.875000    0.375000
C180    C    0.437500    0.812500    0.437500
C181    C    0.375000    0.750000    0.375000
C182    C    0.437500    0.937500    0.312500
C183    C    0.375000    0.875000    0.250000
N3    N    0.000004    0.625004    0.125004
C184    C    0.062500    0.562500    0.062500
C185    C    0.437500    0.562500    0.187500
C186    C    0.062500    0.687500    0.187500
C187    C    0.000000    0.500000    0.500000
C188    C    0.187500    0.562500    0.687500
C189    C    0.125000    0.500000    0.625000
C190    C    0.187500    0.687500    0.562500
C191    C    0.125000    0.625000    0.500000
C192    C    0.062500    0.562500    0.812500
C193    C    0.000000    0.500000    0.750000
C194    C    0.062500    0.687500    0.937500
C195    C    0.000000    0.625000    0.875000
C196    C    0.187500    0.562500    0.937500
C197    C    0.125000    0.500000    0.875000
C198    C    0.187500    0.687500    0.812500
C199    C    0.125000    0.625000    0.750000
C200    C    0.062500    0.812500    0.562500
C201    C    0.000000    0.750000    0.500000
C202    C    0.062500    0.937500    0.687500
C203    C    0.000000    0.875000    0.625000
C204    C    0.187500    0.812500    0.687500
C205    C    0.125000    0.750000    0.625000
C206    C    0.187500    0.937500    0.562500
C207    C    0.125000    0.875000    0.500000
C208    C    0.062500    0.812500    0.812500
C209    C    0.000000    0.750000    0.750000
C210    C    0.062500    0.937500    0.937500
C211    C    0.000000    0.875000    0.875000
C212    C    0.187500    0.812500    0.937500
C213    C    0.125000    0.750000    0.875000
C214    C    0.187500    0.937500    0.812500
C215    C    0.125000    0.875000    0.750000
C216    C    0.312500    0.562500    0.562500
C217    C    0.250000    0.500000    0.500000
C218    C    0.312500    0.687500    0.687500
C219    C    0.250000    0.625000    0.625000
C220    C    0.375000    0.500000    0.625000
C221    C    0.375000    0.625000    0.500000
C222    C    0.312500    0.562500    0.812500
C223    C    0.250000    0.500000    0.750000
C224    C    0.312500    0.687500    0.937500
C225    C    0.250000    0.625000    0.875000
C226    C    0.437500    0.562500    0.937500
C227    C    0.375000    0.500000    0.875000
C228    C    0.437500    0.687500    0.812500
C229    C    0.375000    0.625000    0.750000
C230    C    0.312500    0.812500    0.562500
C231    C    0.250000    0.750000    0.500000
C232    C    0.312500    0.937500    0.687500
C233    C    0.250000    0.875000    0.625000
C234    C    0.437500    0.812500    0.687500
C235    C    0.375000    0.750000    0.625000
C236    C    0.437500    0.937500    0.562500
C237    C    0.375000    0.875000    0.500000
C238    C    0.312500    0.812500    0.812500
C239    C    0.250000    0.750000    0.750000
C240    C    0.312500    0.937500    0.937500
C241    C    0.250000    0.875000    0.875000
C242    C    0.437500    0.812500    0.937500
C243    C    0.375000    0.750000    0.875000
C244    C    0.437500    0.937500    0.812500
C245    C    0.375000    0.875000    0.750000
N4    N    0.000004    0.625004    0.625004
C246    C    0.062500    0.562500    0.562500
C247    C    0.437500    0.562500    0.687500
C248    C    0.062500    0.687500    0.687500
C249    C    0.500000    0.000000    0.000000
C250    C    0.687500    0.062500    0.187500
C251    C    0.625000    0.000000    0.125000
C252    C    0.687500    0.187500    0.062500
C253    C    0.625000    0.125000    0.000000
C254    C    0.562500    0.062500    0.312500
C255    C    0.500000    0.000000    0.250000
C256    C    0.562500    0.187500    0.437500
C257    C    0.500000    0.125000    0.375000
C258    C    0.687500    0.062500    0.437500
C259    C    0.625000    0.000000    0.375000
C260    C    0.687500    0.187500    0.312500
C261    C    0.625000    0.125000    0.250000
C262    C    0.562500    0.312500    0.062500
C263    C    0.500000    0.250000    0.000000
C264    C    0.562500    0.437500    0.187500
C265    C    0.500000    0.375000    0.125000
C266    C    0.687500    0.312500    0.187500
C267    C    0.625000    0.250000    0.125000
C268    C    0.687500    0.437500    0.062500
C269    C    0.625000    0.375000    0.000000
C270    C    0.562500    0.312500    0.312500
C271    C    0.500000    0.250000    0.250000
C272    C    0.562500    0.437500    0.437500
C273    C    0.500000    0.375000    0.375000
C274    C    0.687500    0.312500    0.437500
C275    C    0.625000    0.250000    0.375000
C276    C    0.687500    0.437500    0.312500
C277    C    0.625000    0.375000    0.250000
C278    C    0.812500    0.062500    0.062500
C279    C    0.750000    0.000000    0.000000
C280    C    0.812500    0.187500    0.187500
C281    C    0.750000    0.125000    0.125000
C282    C    0.875000    0.000000    0.125000
C283    C    0.875000    0.125000    0.000000
C284    C    0.812500    0.062500    0.312500
C285    C    0.750000    0.000000    0.250000
C286    C    0.812500    0.187500    0.437500
C287    C    0.750000    0.125000    0.375000
C288    C    0.937500    0.062500    0.437500
C289    C    0.875000    0.000000    0.375000
C290    C    0.937500    0.187500    0.312500
C291    C    0.875000    0.125000    0.250000
C292    C    0.812500    0.312500    0.062500
C293    C    0.750000    0.250000    0.000000
C294    C    0.812500    0.437500    0.187500
C295    C    0.750000    0.375000    0.125000
C296    C    0.937500    0.312500    0.187500
C297    C    0.875000    0.250000    0.125000
C298    C    0.937500    0.437500    0.062500
C299    C    0.875000    0.375000    0.000000
C300    C    0.812500    0.312500    0.312500
C301    C    0.750000    0.250000    0.250000
C302    C    0.812500    0.437500    0.437500
C303    C    0.750000    0.375000    0.375000
C304    C    0.937500    0.312500    0.437500
C305    C    0.875000    0.250000    0.375000
C306    C    0.937500    0.437500    0.312500
C307    C    0.875000    0.375000    0.250000
N5    N    0.500004    0.125004    0.125004
C308    C    0.562500    0.062500    0.062500
C309    C    0.937500    0.062500    0.187500
C310    C    0.562500    0.187500    0.187500
C311    C    0.500000    0.000000    0.500000
C312    C    0.687500    0.062500    0.687500
C313    C    0.625000    0.000000    0.625000
C314    C    0.687500    0.187500    0.562500
C315    C    0.625000    0.125000    0.500000
C316    C    0.562500    0.062500    0.812500
C317    C    0.500000    0.000000    0.750000
C318    C    0.562500    0.187500    0.937500
C319    C    0.500000    0.125000    0.875000
C320    C    0.687500    0.062500    0.937500
C321    C    0.625000    0.000000    0.875000
C322    C    0.687500    0.187500    0.812500
C323    C    0.625000    0.125000    0.750000
C324    C    0.562500    0.312500    0.562500
C325    C    0.500000    0.250000    0.500000
C326    C    0.562500    0.437500    0.687500
C327    C    0.500000    0.375000    0.625000
C328    C    0.687500    0.312500    0.687500
C329    C    0.625000    0.250000    0.625000
C330    C    0.687500    0.437500    0.562500
C331    C    0.625000    0.375000    0.500000
C332    C    0.562500    0.312500    0.812500
C333    C    0.500000    0.250000    0.750000
C334    C    0.562500    0.437500    0.937500
C335    C    0.500000    0.375000    0.875000
C336    C    0.687500    0.312500    0.937500
C337    C    0.625000    0.250000    0.875000
C338    C    0.687500    0.437500    0.812500
C339    C    0.625000    0.375000    0.750000
C340    C    0.812500    0.062500    0.562500
C341    C    0.750000    0.000000    0.500000
C342    C    0.812500    0.187500    0.687500
C343    C    0.750000    0.125000    0.625000
C344    C    0.875000    0.000000    0.625000
C345    C    0.875000    0.125000    0.500000
C346    C    0.812500    0.062500    0.812500
C347    C    0.750000    0.000000    0.750000
C348    C    0.812500    0.187500    0.937500
C349    C    0.750000    0.125000    0.875000
C350    C    0.937500    0.062500    0.937500
C351    C    0.875000    0.000000    0.875000
C352    C    0.937500    0.187500    0.812500
C353    C    0.875000    0.125000    0.750000
C354    C    0.812500    0.312500    0.562500
C355    C    0.750000    0.250000    0.500000
C356    C    0.812500    0.437500    0.687500
C357    C    0.750000    0.375000    0.625000
C358    C    0.937500    0.312500    0.687500
C359    C    0.875000    0.250000    0.625000
C360    C    0.937500    0.437500    0.562500
C361    C    0.875000    0.375000    0.500000
C362    C    0.812500    0.312500    0.812500
C363    C    0.750000    0.250000    0.750000
C364    C    0.812500    0.437500    0.937500
C365    C    0.750000    0.375000    0.875000
C366    C    0.937500    0.312500    0.937500
C367    C    0.875000    0.250000    0.875000
C368    C    0.937500    0.437500    0.812500
C369    C    0.875000    0.375000    0.750000
N6    N    0.500004    0.125004    0.625004
C370    C    0.562500    0.062500    0.562500
C371    C    0.937500    0.062500    0.687500
C372    C    0.562500    0.187500    0.687500
C373    C    0.500000    0.500000    0.000000
C374    C    0.687500    0.562500    0.187500
C375    C    0.625000    0.500000    0.125000
C376    C    0.687500    0.687500    0.062500
C377    C    0.625000    0.625000    0.000000
C378    C    0.562500    0.562500    0.312500
C379    C    0.500000    0.500000    0.250000
C380    C    0.562500    0.687500    0.437500
C381    C    0.500000    0.625000    0.375000
C382    C    0.687500    0.562500    0.437500
C383    C    0.625000    0.500000    0.375000
C384    C    0.687500    0.687500    0.312500
C385    C    0.625000    0.625000    0.250000
C386    C    0.562500    0.812500    0.062500
C387    C    0.500000    0.750000    0.000000
C388    C    0.562500    0.937500    0.187500
C389    C    0.500000    0.875000    0.125000
C390    C    0.687500    0.812500    0.187500
C391    C    0.625000    0.750000    0.125000
C392    C    0.687500    0.937500    0.062500
C393    C    0.625000    0.875000    0.000000
C394    C    0.562500    0.812500    0.312500
C395    C    0.500000    0.750000    0.250000
C396    C    0.562500    0.937500    0.437500
C397    C    0.500000    0.875000    0.375000
C398    C    0.687500    0.812500    0.437500
C399    C    0.625000    0.750000    0.375000
C400    C    0.687500    0.937500    0.312500
C401    C    0.625000    0.875000    0.250000
C402    C    0.812500    0.562500    0.062500
C403    C    0.750000    0.500000    0.000000
C404    C    0.812500    0.687500    0.187500
C405    C    0.750000    0.625000    0.125000
C406    C    0.875000    0.500000    0.125000
C407    C    0.875000    0.625000    0.000000
C408    C    0.812500    0.562500    0.312500
C409    C    0.750000    0.500000    0.250000
C410    C    0.812500    0.687500    0.437500
C411    C    0.750000    0.625000    0.375000
C412    C    0.937500    0.562500    0.437500
C413    C    0.875000    0.500000    0.375000
C414    C    0.937500    0.687500    0.312500
C415    C    0.875000    0.625000    0.250000
C416    C    0.812500    0.812500    0.062500
C417    C    0.750000    0.750000    0.000000
C418    C    0.812500    0.937500    0.187500
C419    C    0.750000    0.875000    0.125000
C420    C    0.937500    0.812500    0.187500
C421    C    0.875000    0.750000    0.125000
C422    C    0.937500    0.937500    0.062500
C423    C    0.875000    0.875000    0.000000
C424    C    0.812500    0.812500    0.312500
C425    C    0.750000    0.750000    0.250000
C426    C    0.812500    0.937500    0.437500
C427    C    0.750000    0.875000    0.375000
C428    C    0.937500    0.812500    0.437500
C429    C    0.875000    0.750000    0.375000
C430    C    0.937500    0.937500    0.312500
C431    C    0.875000    0.875000    0.250000
N7    N    0.500004    0.625004    0.125004
C432    C    0.562500    0.562500    0.062500
C433    C    0.937500    0.562500    0.187500
C434    C    0.562500    0.687500    0.187500
C435    C    0.500000    0.500000    0.500000
C436    C    0.687500    0.562500    0.687500
C437    C    0.625000    0.500000    0.625000
C438    C    0.687500    0.687500    0.562500
C439    C    0.625000    0.625000    0.500000
C440    C    0.562500    0.562500    0.812500
C441    C    0.500000    0.500000    0.750000
C442    C    0.562500    0.687500    0.937500
C443    C    0.500000    0.625000    0.875000
C444    C    0.687500    0.562500    0.937500
C445    C    0.625000    0.500000    0.875000
C446    C    0.687500    0.687500    0.812500
C447    C    0.625000    0.625000    0.750000
C448    C    0.562500    0.812500    0.562500
C449    C    0.500000    0.750000    0.500000
C450    C    0.562500    0.937500    0.687500
C451    C    0.500000    0.875000    0.625000
C452    C    0.687500    0.812500    0.687500
C453    C    0.625000    0.750000    0.625000
C454    C    0.687500    0.937500    0.562500
C455    C    0.625000    0.875000    0.500000
C456    C    0.562500    0.812500    0.812500
C457    C    0.500000    0.750000    0.750000
C458    C    0.562500    0.937500    0.937500
C459    C    0.500000    0.875000    0.875000
C460    C    0.687500    0.812500    0.937500
C461    C    0.625000    0.750000    0.875000
C462    C    0.687500    0.937500    0.812500
C463    C    0.625000    0.875000    0.750000
C464    C    0.812500    0.562500    0.562500
C465    C    0.750000    0.500000    0.500000
C466    C    0.812500    0.687500    0.687500
C467    C    0.750000    0.625000    0.625000
C468    C    0.875000    0.500000    0.625000
C469    C    0.875000    0.625000    0.500000
C470    C    0.812500    0.562500    0.812500
C471    C    0.750000    0.500000    0.750000
C472    C    0.812500    0.687500    0.937500
C473    C    0.750000    0.625000    0.875000
C474    C    0.937500    0.562500    0.937500
C475    C    0.875000    0.500000    0.875000
C476    C    0.937500    0.687500    0.812500
C477    C    0.875000    0.625000    0.750000
C478    C    0.812500    0.812500    0.562500
C479    C    0.750000    0.750000    0.500000
C480    C    0.812500    0.937500    0.687500
C481    C    0.750000    0.875000    0.625000
C482    C    0.937500    0.812500    0.687500
C483    C    0.875000    0.750000    0.625000
C484    C    0.937500    0.937500    0.562500
C485    C    0.875000    0.875000    0.500000
C486    C    0.812500    0.812500    0.812500
C487    C    0.750000    0.750000    0.750000
C488    C    0.812500    0.937500    0.937500
C489    C    0.750000    0.875000    0.875000
C490    C    0.937500    0.812500    0.937500
C491    C    0.875000    0.750000    0.875000
C492    C    0.937500    0.937500    0.812500
C493    C    0.875000    0.875000    0.750000
N8    N    0.500004    0.625004    0.625004
C494    C    0.562500    0.562500    0.562500
C495    C    0.937500    0.562500    0.687500
C496    C    0.562500    0.687500    0.687500

loop_
_geom_bond_atom_site_label_1
_geom_bond_atom_site_label_2
_geom_bond_distance
C1    C60    0.10825
C1    C210    0.10825
C1    C350    0.10825
C1    C422    0.10825
C2    C3    0.10825
C2    C13    0.10825
C2    C33    0.10825
C2    C37    0.10825
C3    C60    0.10825
C3    C140    0.10825
C3    C144    0.10825
C4    C5    0.10825
C4    C19    0.10825
C4    C33    0.10825
C4    C45    0.10825
C5    C60    0.10825
C5    C70    0.10825
C5    C72    0.10825
C6    C7    0.10825
C6    C9    0.10825
C6    C11    0.10825
C6    C13    0.10825
C7    C140    0.10825
C7    C309    0.10825
C7    C430    0.10825
C8    C9    0.10825
C8    C27    0.10825
C8    C67    0.10825
C8    C77    0.10825
C9    C288    0.10825
C9    C290    0.10825
C10    C11    0.10825
C10    C39    0.10825
C10    C67    0.10825
C10    C93    0.10825
C11    C148    0.10825
C11    C152    0.10825
C12    C13    0.10825
C12    C27    0.10825
C12    C39    0.10825
C12    C53    0.10825
C13    C62    0.10825
C14    C15    0.10825
C14    C17    0.10825
C14    C19    0.10825
C14    C21    0.10825
C15    C70    0.10825
C15    C366    0.10825
C16    C17    0.10825
C16    C29    0.10825
C16    C127    0.10825
C16    C131    0.10825
C17    C296    0.10825
C17    C298    0.10825
C18    C19    0.10825
C18    C29    0.10825
C18    C47    0.10825
C18    C53    0.10825
C19    C62    0.10825
C20    C21    0.10825
C20    C47    0.10825
C20    C127    0.10825
C20    C155    0.10825
C21    C86    0.10825
C21    C88    0.10825
C22    C23    0.10825
C22    C25    0.10825
C22    C27    0.10825
C22    C29    0.10825
C23    C62    0.10825
C23    C290    0.10825
C23    C296    0.10825
C24    C25    0.10825
C24    C83    0.10825
C24    C135    0.10825
C24    C187    0.10825
C25    C304    0.10825
C25    C306    0.10825
C26    C27    0.10825
C26    C55    0.10825
C26    C83    0.10825
C26    C107    0.10825
C28    C29    0.10825
C28    C55    0.10825
C28    C135    0.10825
C28    C161    0.10825
C30    C31    0.10825
C30    C33    0.10825
C30    C34    0.10825
C30    C35    0.10825
C31    C72    0.10825
C31    C144    0.10825
C31    C240    0.10825
C32    C33    0.10825
C32    C43    0.10825
C32    C49    0.10825
C32    C53    0.10825
C34    C61    0.10825
C34    C170    0.10825
C34    C174    0.10825
C35    C100    0.10825
C35    C102    0.10825
C36    C37    0.10825
C36    C39    0.10825
C36    C41    0.10825
C36    C43    0.10825
C37    C152    0.10825
C37    C170    0.10825
C38    C39    0.10825
C38    C57    0.10825
C38    C97    0.10825
C38    C107    0.10825
C40    C41    0.10825
C40    C97    0.10825
C40    C257    0.10825
C40    C311    0.10825
C41    C178    0.10825
C41    C182    0.10825
C42    C43    0.10825
C42    C57    0.10825
C42    C257    0.10825
C42    C271    0.10825
C43    C61    0.10825
C44    C45    0.10825
C44    C47    0.10825
C44    C49    0.10825
C44    C51    0.10825
C45    C88    0.10825
C45    C100    0.10825
C46    C47    0.10825
C46    C59    0.10825
C46    C158    0.10825
C46    C161    0.10825
C48    C49    0.10825
C48    C59    0.10825
C48    C265    0.10825
C48    C271    0.10825
C50    C51    0.10825
C50    C158    0.10825
C50    C265    0.10825
C50    C373    0.10825
C51    C116    0.10825
C51    C118    0.10825
C52    C53    0.10825
C52    C55    0.10825
C52    C57    0.10825
C52    C59    0.10825
C54    C55    0.10825
C54    C113    0.10825
C54    C165    0.10825
C54    C217    0.10825
C56    C57    0.10825
C56    C113    0.10825
C56    C273    0.10825
C56    C325    0.10825
C58    C59    0.10825
C58    C165    0.10825
C58    C273    0.10825
C58    C379    0.10825
N1    C60    0.10826
N1    C62    0.10825
N1    C309    0.10826
C61    C255    0.10825
C61    N5    0.10826
C63    C122    0.10825
C63    C148    0.10825
C63    C288    0.10825
C63    C484    0.10825
C64    C65    0.10825
C64    C75    0.10825
C64    C95    0.10825
C64    C99    0.10825
C65    C122    0.10825
C65    C202    0.10825
C65    C206    0.10825
C66    C67    0.10825
C66    C81    0.10825
C66    C95    0.10825
C66    C107    0.10825
C67    C122    0.10825
C68    C69    0.10825
C68    C71    0.10825
C68    C73    0.10825
C68    C75    0.10825
C69    C202    0.10825
C69    C371    0.10825
C69    C492    0.10825
C70    C71    0.10825
C70    C89    0.10825
C71    C350    0.10825
C71    C352    0.10825
C72    C73    0.10825
C72    C101    0.10825
C73    C210    0.10825
C73    C214    0.10825
C74    C75    0.10825
C74    C89    0.10825
C74    C101    0.10825
C74    C115    0.10825
C75    C124    0.10825
C76    C77    0.10825
C76    C79    0.10825
C76    C81    0.10825
C76    C83    0.10825
C77    C304    0.10825
C78    C79    0.10825
C78    C91    0.10825
C78    C189    0.10825
C78    C193    0.10825
C79    C358    0.10825
C79    C360    0.10825
C80    C81    0.10825
C80    C91    0.10825
C80    C109    0.10825
C80    C115    0.10825
C81    C124    0.10825
C82    C83    0.10825
C82    C109    0.10825
C82    C189    0.10825
C82    C217    0.10825
C84    C85    0.10825
C84    C87    0.10825
C84    C89    0.10825
C84    C91    0.10825
C85    C124    0.10825
C85    C352    0.10825
C85    C358    0.10825
C86    C87    0.10825
C86    C125    0.10825
C86    C197    0.10825
C87    C366    0.10825
C87    C368    0.10825
C88    C89    0.10825
C88    C117    0.10825
C90    C91    0.10825
C90    C117    0.10825
C90    C197    0.10825
C90    C223    0.10825
C92    C93    0.10825
C92    C95    0.10825
C92    C96    0.10825
C92    C97    0.10825
C93    C178    0.10825
C93    C206    0.10825
C94    C95    0.10825
C94    C105    0.10825
C94    C111    0.10825
C94    C115    0.10825
C96    C123    0.10825
C96    C232    0.10825
C96    C236    0.10825
C98    C99    0.10825
C98    C101    0.10825
C98    C103    0.10825
C98    C105    0.10825
C99    C214    0.10825
C99    C232    0.10825
C100    C101    0.10825
C100    C119    0.10825
C102    C103    0.10825
C102    C249    0.10825
C102    C319    0.10825
C103    C240    0.10825
C103    C244    0.10825
C104    C105    0.10825
C104    C119    0.10825
C104    C319    0.10825
C104    C333    0.10825
C105    C123    0.10825
C106    C107    0.10825
C106    C109    0.10825
C106    C111    0.10825
C106    C113    0.10825
C108    C109    0.10825
C108    C121    0.10825
C108    C220    0.10825
C108    C223    0.10825
C110    C111    0.10825
C110    C121    0.10825
C110    C327    0.10825
C110    C333    0.10825
C112    C113    0.10825
C112    C220    0.10825
C112    C327    0.10825
C112    C435    0.10825
C114    C115    0.10825
C114    C117    0.10825
C114    C119    0.10825
C114    C121    0.10825
C116    C117    0.10825
C116    C155    0.10825
C116    C227    0.10825
C118    C119    0.10825
C118    C263    0.10825
C118    C335    0.10825
C120    C121    0.10825
C120    C227    0.10825
C120    C335    0.10825
C120    C441    0.10825
N2    C122    0.10826
N2    C124    0.10825
N2    C371    0.10826
C123    C317    0.10825
C123    N6    0.10826
C125    C184    0.10825
C125    C298    0.10825
C125    C474    0.10825
C126    C127    0.10825
C126    C137    0.10825
C126    C157    0.10825
C126    C161    0.10825
C127    C184    0.10825
C128    C129    0.10825
C128    C143    0.10825
C128    C157    0.10825
C128    C169    0.10825
C129    C184    0.10825
C129    C194    0.10825
C129    C196    0.10825
C130    C131    0.10825
C130    C133    0.10825
C130    C135    0.10825
C130    C137    0.10825
C131    C306    0.10825
C131    C433    0.10825
C132    C133    0.10825
C132    C151    0.10825
C132    C191    0.10825
C132    C201    0.10825
C133    C412    0.10825
C133    C414    0.10825
C134    C135    0.10825
C134    C163    0.10825
C134    C191    0.10825
C134    C217    0.10825
C136    C137    0.10825
C136    C151    0.10825
C136    C163    0.10825
C136    C177    0.10825
C137    C186    0.10825
C138    C139    0.10825
C138    C141    0.10825
C138    C143    0.10825
C138    C145    0.10825
C139    C194    0.10825
C139    C490    0.10825
C140    C141    0.10825
C140    C153    0.10825
C141    C420    0.10825
C141    C422    0.10825
C142    C143    0.10825
C142    C153    0.10825
C142    C171    0.10825
C142    C177    0.10825
C143    C186    0.10825
C144    C145    0.10825
C144    C171    0.10825
C145    C210    0.10825
C145    C212    0.10825
C146    C147    0.10825
C146    C149    0.10825
C146    C151    0.10825
C146    C153    0.10825
C147    C186    0.10825
C147    C414    0.10825
C147    C420    0.10825
C148    C149    0.10825
C148    C207    0.10825
C149    C428    0.10825
C149    C430    0.10825
C150    C151    0.10825
C150    C179    0.10825
C150    C207    0.10825
C150    C231    0.10825
C152    C153    0.10825
C152    C179    0.10825
C154    C155    0.10825
C154    C157    0.10825
C154    C158    0.10825
C154    C159    0.10825
C155    C196    0.10825
C156    C157    0.10825
C156    C167    0.10825
C156    C173    0.10825
C156    C177    0.10825
C158    C185    0.10825
C159    C224    0.10825
C159    C226    0.10825
C160    C161    0.10825
C160    C163    0.10825
C160    C165    0.10825
C160    C167    0.10825
C162    C163    0.10825
C162    C181    0.10825
C162    C221    0.10825
C162    C231    0.10825
C164    C165    0.10825
C164    C221    0.10825
C164    C381    0.10825
C164    C435    0.10825
C166    C167    0.10825
C166    C181    0.10825
C166    C381    0.10825
C166    C395    0.10825
C167    C185    0.10825
C168    C169    0.10825
C168    C171    0.10825
C168    C173    0.10825
C168    C175    0.10825
C169    C212    0.10825
C169    C224    0.10825
C170    C171    0.10825
C170    C183    0.10825
C172    C173    0.10825
C172    C183    0.10825
C172    C389    0.10825
C172    C395    0.10825
C174    C175    0.10825
C174    C249    0.10825
C174    C389    0.10825
C175    C240    0.10825
C175    C242    0.10825
C176    C177    0.10825
C176    C179    0.10825
C176    C181    0.10825
C176    C183    0.10825
C178    C179    0.10825
C178    C237    0.10825
C180    C181    0.10825
C180    C237    0.10825
C180    C397    0.10825
C180    C449    0.10825
C182    C183    0.10825
C182    C255    0.10825
C182    C397    0.10825
N3    C184    0.10826
N3    C186    0.10825
N3    C433    0.10826
C185    C379    0.10825
C185    N7    0.10826
C187    C246    0.10825
C187    C360    0.10825
C187    C412    0.10825
C188    C189    0.10825
C188    C199    0.10825
C188    C219    0.10825
C188    C223    0.10825
C189    C246    0.10825
C190    C191    0.10825
C190    C205    0.10825
C190    C219    0.10825
C190    C231    0.10825
C191    C246    0.10825
C192    C193    0.10825
C192    C195    0.10825
C192    C197    0.10825
C192    C199    0.10825
C193    C368    0.10825
C193    C495    0.10825
C194    C195    0.10825
C194    C213    0.10825
C195    C474    0.10825
C195    C476    0.10825
C196    C197    0.10825
C196    C225    0.10825
C198    C199    0.10825
C198    C213    0.10825
C198    C225    0.10825
C198    C239    0.10825
C199    C248    0.10825
C200    C201    0.10825
C200    C203    0.10825
C200    C205    0.10825
C200    C207    0.10825
C201    C428    0.10825
C202    C203    0.10825
C202    C215    0.10825
C203    C482    0.10825
C203    C484    0.10825
C204    C205    0.10825
C204    C215    0.10825
C204    C233    0.10825
C204    C239    0.10825
C205    C248    0.10825
C206    C207    0.10825
C206    C233    0.10825
C208    C209    0.10825
C208    C211    0.10825
C208    C213    0.10825
C208    C215    0.10825
C209    C248    0.10825
C209    C476    0.10825
C209    C482    0.10825
C210    C211    0.10825
C211    C490    0.10825
C211    C492    0.10825
C212    C213    0.10825
C212    C241    0.10825
C214    C215    0.10825
C214    C241    0.10825
C216    C217    0.10825
C216    C219    0.10825
C216    C220    0.10825
C216    C221    0.10825
C218    C219    0.10825
C218    C229    0.10825
C218    C235    0.10825
C218    C239    0.10825
C220    C247    0.10825
C222    C223    0.10825
C222    C225    0.10825
C222    C227    0.10825
C222    C229    0.10825
C224    C225    0.10825
C224    C243    0.10825
C226    C227    0.10825
C226    C373    0.10825
C226    C443    0.10825
C228    C229    0.10825
C228    C243    0.10825
C228    C443    0.10825
C228    C457    0.10825
C229    C247    0.10825
C230    C231    0.10825
C230    C233    0.10825
C230    C235    0.10825
C230    C237    0.10825
C232    C233    0.10825
C232    C245    0.10825
C234    C235    0.10825
C234    C245    0.10825
C234    C451    0.10825
C234    C457    0.10825
C236    C237    0.10825
C236    C311    0.10825
C236    C451    0.10825
C238    C239    0.10825
C238    C241    0.10825
C238    C243    0.10825
C238    C245    0.10825
C240    C241    0.10825
C242    C243    0.10825
C242    C387    0.10825
C242    C459    0.10825
C244    C245    0.10825
C244    C317    0.10825
C244    C459    0.10825
N4    C246    0.10826
N4    C248    0.10825
N4    C495    0.10826
C247    C441    0.10825
C247    N8    0.10826
C249    C308    0.10825
C249    C458    0.10825
C250    C251    0.10825
C250    C261    0.10825
C250    C281    0.10825
C250    C285    0.10825
C251    C308    0.10825
C251    C388    0.10825
C251    C392    0.10825
C252    C253    0.10825
C252    C267    0.10825
C252    C281    0.10825
C252    C293    0.10825
C253    C308    0.10825
C253    C318    0.10825
C253    C320    0.10825
C254    C255    0.10825
C254    C257    0.10825
C254    C259    0.10825
C254    C261    0.10825
C255    C388    0.10825
C256    C257    0.10825
C256    C275    0.10825
C256    C315    0.10825
C256    C325    0.10825
C258    C259    0.10825
C258    C287    0.10825
C258    C315    0.10825
C258    C341    0.10825
C259    C396    0.10825
C259    C400    0.10825
C260    C261    0.10825
C260    C275    0.10825
C260    C287    0.10825
C260    C301    0.10825
C261    C310    0.10825
C262    C263    0.10825
C262    C265    0.10825
C262    C267    0.10825
C262    C269    0.10825
C263    C318    0.10825
C264    C265    0.10825
C264    C277    0.10825
C264    C375    0.10825
C264    C379    0.10825
C266    C267    0.10825
C266    C277    0.10825
C266    C295    0.10825
C266    C301    0.10825
C267    C310    0.10825
C268    C269    0.10825
C268    C295    0.10825
C268    C375    0.10825
C268    C403    0.10825
C269    C334    0.10825
C269    C336    0.10825
C270    C271    0.10825
C270    C273    0.10825
C270    C275    0.10825
C270    C277    0.10825
C271    C310    0.10825
C272    C273    0.10825
C272    C331    0.10825
C272    C383    0.10825
C272    C435    0.10825
C274    C275    0.10825
C274    C303    0.10825
C274    C331    0.10825
C274    C355    0.10825
C276    C277    0.10825
C276    C303    0.10825
C276    C383    0.10825
C276    C409    0.10825
C278    C279    0.10825
C278    C281    0.10825
C278    C282    0.10825
C278    C283    0.10825
C279    C320    0.10825
C279    C392    0.10825
C279    C488    0.10825
C280    C281    0.10825
C280    C291    0.10825
C280    C297    0.10825
C280    C301    0.10825
C282    C309    0.10825
C282    C418    0.10825
C282    C422    0.10825
C283    C348    0.10825
C283    C350    0.10825
C284    C285    0.10825
C284    C287    0.10825
C284    C289    0.10825
C284    C291    0.10825
C285    C400    0.10825
C285    C418    0.10825
C286    C287    0.10825
C286    C305    0.10825
C286    C345    0.10825
C286    C355    0.10825
C288    C289    0.10825
C288    C345    0.10825
C289    C426    0.10825
C289    C430    0.10825
C290    C291    0.10825
C290    C305    0.10825
C291    C309    0.10825
C292    C293    0.10825
C292    C295    0.10825
C292    C297    0.10825
C292    C299    0.10825
C293    C336    0.10825
C293    C348    0.10825
C294    C295    0.10825
C294    C307    0.10825
C294    C406    0.10825
C294    C409    0.10825
C296    C297    0.10825
C296    C307    0.10825
C298    C299    0.10825
C298    C406    0.10825
C299    C364    0.10825
C299    C366    0.10825
C300    C301    0.10825
C300    C303    0.10825
C300    C305    0.10825
C300    C307    0.10825
C302    C303    0.10825
C302    C361    0.10825
C302    C413    0.10825
C302    C465    0.10825
C304    C305    0.10825
C304    C361    0.10825
C306    C307    0.10825
C306    C413    0.10825
N5    C308    0.10826
N5    C310    0.10825
C311    C370    0.10825
C311    C396    0.10825
C312    C313    0.10825
C312    C323    0.10825
C312    C343    0.10825
C312    C347    0.10825
C313    C370    0.10825
C313    C450    0.10825
C313    C454    0.10825
C314    C315    0.10825
C314    C329    0.10825
C314    C343    0.10825
C314    C355    0.10825
C315    C370    0.10825
C316    C317    0.10825
C316    C319    0.10825
C316    C321    0.10825
C316    C323    0.10825
C317    C450    0.10825
C318    C319    0.10825
C318    C337    0.10825
C320    C321    0.10825
C320    C349    0.10825
C321    C458    0.10825
C321    C462    0.10825
C322    C323    0.10825
C322    C337    0.10825
C322    C349    0.10825
C322    C363    0.10825
C323    C372    0.10825
C324    C325    0.10825
C324    C327    0.10825
C324    C329    0.10825
C324    C331    0.10825
C326    C327    0.10825
C326    C339    0.10825
C326    C437    0.10825
C326    C441    0.10825
C328    C329    0.10825
C328    C339    0.10825
C328    C357    0.10825
C328    C363    0.10825
C329    C372    0.10825
C330    C331    0.10825
C330    C357    0.10825
C330    C437    0.10825
C330    C465    0.10825
C332    C333    0.10825
C332    C335    0.10825
C332    C337    0.10825
C332    C339    0.10825
C333    C372    0.10825
C334    C335    0.10825
C334    C373    0.10825
C334    C445    0.10825
C336    C337    0.10825
C336    C365    0.10825
C338    C339    0.10825
C338    C365    0.10825
C338    C445    0.10825
C338    C471    0.10825
C340    C341    0.10825
C340    C343    0.10825
C340    C344    0.10825
C340    C345    0.10825
C341    C426    0.10825
C341    C454    0.10825
C342    C343    0.10825
C342    C353    0.10825
C342    C359    0.10825
C342    C363    0.10825
C344    C371    0.10825
C344    C480    0.10825
C344    C484    0.10825
C346    C347    0.10825
C346    C349    0.10825
C346    C351    0.10825
C346    C353    0.10825
C347    C462    0.10825
C347    C480    0.10825
C348    C349    0.10825
C348    C367    0.10825
C350    C351    0.10825
C351    C488    0.10825
C351    C492    0.10825
C352    C353    0.10825
C352    C367    0.10825
C353    C371    0.10825
C354    C355    0.10825
C354    C357    0.10825
C354    C359    0.10825
C354    C361    0.10825
C356    C357    0.10825
C356    C369    0.10825
C356    C468    0.10825
C356    C471    0.10825
C358    C359    0.10825
C358    C369    0.10825
C360    C361    0.10825
C360    C468    0.10825
C362    C363    0.10825
C362    C365    0.10825
C362    C367    0.10825
C362    C369    0.10825
C364    C365    0.10825
C364    C403    0.10825
C364    C475    0.10825
C366    C367    0.10825
C368    C369    0.10825
C368    C475    0.10825
N6    C370    0.10826
N6    C372    0.10825
C373    C432    0.10825
C374    C375    0.10825
C374    C385    0.10825
C374    C405    0.10825
C374    C409    0.10825
C375    C432    0.10825
C376    C377    0.10825
C376    C391    0.10825
C376    C405    0.10825
C376    C417    0.10825
C377    C432    0.10825
C377    C442    0.10825
C377    C444    0.10825
C378    C379    0.10825
C378    C381    0.10825
C378    C383    0.10825
C378    C385    0.10825
C380    C381    0.10825
C380    C399    0.10825
C380    C439    0.10825
C380    C449    0.10825
C382    C383    0.10825
C382    C411    0.10825
C382    C439    0.10825
C382    C465    0.10825
C384    C385    0.10825
C384    C399    0.10825
C384    C411    0.10825
C384    C425    0.10825
C385    C434    0.10825
C386    C387    0.10825
C386    C389    0.10825
C386    C391    0.10825
C386    C393    0.10825
C387    C442    0.10825
C388    C389    0.10825
C388    C401    0.10825
C390    C391    0.10825
C390    C401    0.10825
C390    C419    0.10825
C390    C425    0.10825
C391    C434    0.10825
C392    C393    0.10825
C392    C419    0.10825
C393    C458    0.10825
C393    C460    0.10825
C394    C395    0.10825
C394    C397    0.10825
C394    C399    0.10825
C394    C401    0.10825
C395    C434    0.10825
C396    C397    0.10825
C396    C455    0.10825
C398    C399    0.10825
C398    C427    0.10825
C398    C455    0.10825
C398    C479    0.10825
C400    C401    0.10825
C400    C427    0.10825
C402    C403    0.10825
C402    C405    0.10825
C402    C406    0.10825
C402    C407    0.10825
C403    C444    0.10825
C404    C405    0.10825
C404    C415    0.10825
C404    C421    0.10825
C404    C425    0.10825
C406    C433    0.10825
C407    C472    0.10825
C407    C474    0.10825
C408    C409    0.10825
C408    C411    0.10825
C408    C413    0.10825
C408    C415    0.10825
C410    C411    0.10825
C410    C429    0.10825
C410    C469    0.10825
C410    C479    0.10825
C412    C413    0.10825
C412    C469    0.10825
C414    C415    0.10825
C414    C429    0.10825
C415    C433    0.10825
C416    C417    0.10825
C416    C419    0.10825
C416    C421    0.10825
C416    C423    0.10825
C417    C460    0.10825
C417    C472    0.10825
C418    C419    0.10825
C418    C431    0.10825
C420    C421    0.10825
C420    C431    0.10825
C422    C423    0.10825
C423    C488    0.10825
C423    C490    0.10825
C424    C425    0.10825
C424    C427    0.10825
C424    C429    0.10825
C424    C431    0.10825
C426    C427    0.10825
C426    C485    0.10825
C428    C429    0.10825
C428    C485    0.10825
C430    C431    0.10825
N7    C432    0.10826
N7    C434    0.10825
C435    C494    0.10825
C436    C437    0.10825
C436    C447    0.10825
C436    C467    0.10825
C436    C471    0.10825
C437    C494    0.10825
C438    C439    0.10825
C438    C453    0.10825
C438    C467    0.10825
C438    C479    0.10825
C439    C494    0.10825
C440    C441    0.10825
C440    C443    0.10825
C440    C445    0.10825
C440    C447    0.10825
C442    C443    0.10825
C442    C461    0.10825
C444    C445    0.10825
C444    C473    0.10825
C446    C447    0.10825
C446    C461    0.10825
C446    C473    0.10825
C446    C487    0.10825
C447    C496    0.10825
C448    C449    0.10825
C448    C451    0.10825
C448    C453    0.10825
C448    C455    0.10825
C450    C451    0.10825
C450    C463    0.10825
C452    C453    0.10825
C452    C463    0.10825
C452    C481    0.10825
C452    C487    0.10825
C453    C496    0.10825
C454    C455    0.10825
C454    C481    0.10825
C456    C457    0.10825
C456    C459    0.10825
C456    C461    0.10825
C456    C463    0.10825
C457    C496    0.10825
C458    C459    0.10825
C460    C461    0.10825
C460    C489    0.10825
C462    C463    0.10825
C462    C489    0.10825
C464    C465    0.10825
C464    C467    0.10825
C464    C468    0.10825
C464    C469    0.10825
C466    C467    0.10825
C466    C477    0.10825
C466    C483    0.10825
C466    C487    0.10825
C468    C495    0.10825
C470    C471    0.10825
C470    C473    0.10825
C470    C475    0.10825
C470    C477    0.10825
C472    C473    0.10825
C472    C491    0.10825
C474    C475    0.10825
C476    C477    0.10825
C476    C491    0.10825
C477    C495    0.10825
C478    C479    0.10825
C478    C481    0.10825
C478    C483    0.10825
C478    C485    0.10825
C480    C481    0.10825
C480    C493    0.10825
C482    C483    0.10825
C482    C493    0.10825
C484    C485    0.10825
C486    C487    0.10825
C486    C489    0.10825
C486    C491    0.10825
C486    C493    0.10825
C488    C489    0.10825
C490    C491    0.10825
C492    C493    0.10825
N8    C494    0.10826
N8    C496    0.10825
