data_new_xtal_PM
_symmetry_space_group_name_H-M    'P1'
_cell_length_a    7.134000
_cell_length_b    7.134000
_cell_length_c    7.134000
_cell_angle_alpha    90.000000
_cell_angle_beta    90.000000
_cell_angle_gamma    90.000000
_symmetry_Int_Tables_number 1

loop_
_symmetry_equiv_pos_as_xyz
'x,y,z'

loop_
_atom_site_label
_atom_site_type_symbol
_atom_site_fract_x
_atom_site_fract_y
_atom_site_fract_z
C1    C    0.000000    0.000000    0.000000
C2    C    0.375000    0.125000    0.375000
C3    C    0.250000    0.000000    0.250000
C4    C    0.375000    0.375000    0.125000
C5    C    0.250000    0.250000    0.000000
C6    C    0.125000    0.125000    0.625000
C7    C    0.000000    0.000000    0.500000
C8    C    0.125000    0.375000    0.875000
C9    C    0.000000    0.250000    0.750000
C10    C    0.375000    0.125000    0.875000
C11    C    0.250000    0.000000    0.750000
C12    C    0.375000    0.375000    0.625000
C13    C    0.250000    0.250000    0.500000
C14    C    0.125000    0.625000    0.125000
C15    C    0.000000    0.500000    0.000000
C16    C    0.125000    0.875000    0.375000
C17    C    0.000000    0.750000    0.250000
C18    C    0.375000    0.625000    0.375000
C19    C    0.250000    0.500000    0.250000
C20    C    0.375000    0.875000    0.125000
C21    C    0.250000    0.750000    0.000000
C22    C    0.125000    0.625000    0.625000
C23    C    0.000000    0.500000    0.500000
C24    C    0.125000    0.875000    0.875000
C25    C    0.000000    0.750000    0.750000
C26    C    0.375000    0.625000    0.875000
C27    C    0.250000    0.500000    0.750000
C28    C    0.375000    0.875000    0.625000
C29    C    0.250000    0.750000    0.500000
C30    C    0.625000    0.125000    0.125000
C31    C    0.500000    0.000000    0.000000
C32    C    0.625000    0.375000    0.375000
C33    C    0.500000    0.250000    0.250000
C34    C    0.750000    0.000000    0.250000
C35    C    0.750000    0.250000    0.000000
C36    C    0.625000    0.125000    0.625000
C37    C    0.500000    0.000000    0.500000
C38    C    0.625000    0.375000    0.875000
C39    C    0.500000    0.250000    0.750000
C40    C    0.875000    0.125000    0.875000
C41    C    0.750000    0.000000    0.750000
C42    C    0.875000    0.375000    0.625000
C43    C    0.750000    0.250000    0.500000
C44    C    0.625000    0.625000    0.125000
C45    C    0.500000    0.500000    0.000000
C46    C    0.625000    0.875000    0.375000
C47    C    0.500000    0.750000    0.250000
C48    C    0.875000    0.625000    0.375000
C49    C    0.750000    0.500000    0.250000
C50    C    0.875000    0.875000    0.125000
C51    C    0.750000    0.750000    0.000000
C52    C    0.625000    0.625000    0.625000
C53    C    0.500000    0.500000    0.500000
C54    C    0.625000    0.875000    0.875000
C55    C    0.500000    0.750000    0.750000
C56    C    0.875000    0.625000    0.875000
C57    C    0.750000    0.500000    0.750000
C58    C    0.875000    0.875000    0.625000
C59    C    0.750000    0.750000    0.500000
N1    N    0.000007    0.250007    0.250007
C60    C    0.125000    0.125000    0.125000
C61    C    0.875000    0.125000    0.375000
C62    C    0.125000    0.375000    0.375000

loop_
_geom_bond_atom_site_label_1
_geom_bond_atom_site_label_2
_geom_bond_distance
C1    C24    0.21651
C1    C40    0.21651
C1    C50    0.21651
C1    C60    0.21651
C2    C3    0.21651
C2    C13    0.21651
C2    C33    0.21651
C2    C37    0.21651
C3    C16    0.21651
C3    C20    0.21651
C3    C60    0.21651
C4    C5    0.21651
C4    C19    0.21651
C4    C33    0.21651
C4    C45    0.21651
C5    C8    0.21651
C5    C10    0.21651
C5    C60    0.21651
C6    C7    0.21651
C6    C9    0.21651
C6    C11    0.21651
C6    C13    0.21651
C7    C16    0.21651
C7    C58    0.21651
C7    C61    0.21651
C8    C9    0.21651
C8    C15    0.21651
C8    C27    0.21651
C9    C40    0.21651
C9    C42    0.21651
C10    C11    0.21651
C10    C31    0.21651
C10    C39    0.21651
C11    C24    0.21651
C11    C28    0.21651
C12    C13    0.21651
C12    C27    0.21651
C12    C39    0.21651
C12    C53    0.21651
C13    C62    0.21651
C14    C15    0.21651
C14    C17    0.21651
C14    C19    0.21651
C14    C21    0.21651
C15    C56    0.21651
C16    C17    0.21651
C16    C29    0.21651
C17    C48    0.21651
C17    C50    0.21651
C18    C19    0.21651
C18    C29    0.21651
C18    C47    0.21651
C18    C53    0.21651
C19    C62    0.21651
C20    C21    0.21651
C20    C31    0.21651
C20    C47    0.21651
C21    C24    0.21651
C21    C26    0.21651
C22    C23    0.21651
C22    C25    0.21651
C22    C27    0.21651
C22    C29    0.21651
C23    C42    0.21651
C23    C48    0.21651
C23    C62    0.21651
C24    C25    0.21651
C25    C56    0.21651
C25    C58    0.21651
C26    C27    0.21651
C26    C45    0.21651
C26    C55    0.21651
C28    C29    0.21651
C28    C37    0.21651
C28    C55    0.21651
C30    C31    0.21651
C30    C33    0.21651
C30    C34    0.21651
C30    C35    0.21651
C31    C54    0.21651
C32    C33    0.21651
C32    C43    0.21651
C32    C49    0.21651
C32    C53    0.21651
C34    C46    0.21651
C34    C50    0.21651
C34    C61    0.21651
C35    C38    0.21651
C35    C40    0.21651
C36    C37    0.21651
C36    C39    0.21651
C36    C41    0.21651
C36    C43    0.21651
C37    C46    0.21651
C38    C39    0.21651
C38    C45    0.21651
C38    C57    0.21651
C40    C41    0.21651
C41    C54    0.21651
C41    C58    0.21651
C42    C43    0.21651
C42    C57    0.21651
C43    C61    0.21651
C44    C45    0.21651
C44    C47    0.21651
C44    C49    0.21651
C44    C51    0.21651
C46    C47    0.21651
C46    C59    0.21651
C48    C49    0.21651
C48    C59    0.21651
C50    C51    0.21651
C51    C54    0.21651
C51    C56    0.21651
C52    C53    0.21651
C52    C55    0.21651
C52    C57    0.21651
C52    C59    0.21651
C54    C55    0.21651
C56    C57    0.21651
C58    C59    0.21651
N1    C60    0.21651
N1    C61    0.21651
N1    C62    0.21649
