data_new_xtal_PM
_symmetry_space_group_name_H-M    'P1'
_cell_length_a    25.832000
_cell_length_b    25.832000
_cell_length_c    25.832000
_cell_angle_alpha    90.000000
_cell_angle_beta    90.000000
_cell_angle_gamma    90.000000
_symmetry_Int_Tables_number 1

loop_
_symmetry_equiv_pos_as_xyz
'x,y,z'

loop_
_atom_site_label
_atom_site_type_symbol
_atom_site_fract_x
_atom_site_fract_y
_atom_site_fract_z
Zn1    Zn    0.293380    0.206620    0.206620
Zn2    Zn    0.706620    0.793380    0.206620
Zn3    Zn    0.706620    0.206620    0.793380
Zn4    Zn    0.293380    0.793380    0.793380
Zn5    Zn    0.206620    0.293380    0.206620
Zn6    Zn    0.206620    0.706620    0.793380
Zn7    Zn    0.793380    0.706620    0.206620
Zn8    Zn    0.793380    0.293380    0.793380
Zn9    Zn    0.206620    0.206620    0.293380
Zn10    Zn    0.793380    0.206620    0.706620
Zn11    Zn    0.206620    0.793380    0.706620
Zn12    Zn    0.793380    0.793380    0.293380
Zn13    Zn    0.206620    0.293380    0.793380
Zn14    Zn    0.793380    0.706620    0.793380
Zn15    Zn    0.206620    0.706620    0.206620
Zn16    Zn    0.793380    0.293380    0.206620
Zn17    Zn    0.293380    0.206620    0.793380
Zn18    Zn    0.706620    0.206620    0.206620
Zn19    Zn    0.706620    0.793380    0.793380
Zn20    Zn    0.293380    0.793380    0.206620
Zn21    Zn    0.206620    0.206620    0.706620
Zn22    Zn    0.206620    0.793380    0.293380
Zn23    Zn    0.793380    0.206620    0.293380
Zn24    Zn    0.793380    0.793380    0.706620
Zn25    Zn    0.293380    0.706620    0.706620
Zn26    Zn    0.706620    0.293380    0.706620
Zn27    Zn    0.706620    0.706620    0.293380
Zn28    Zn    0.293380    0.293380    0.293380
Zn29    Zn    0.293380    0.706620    0.293380
Zn30    Zn    0.706620    0.706620    0.706620
Zn31    Zn    0.706620    0.293380    0.293380
Zn32    Zn    0.293380    0.293380    0.706620
O1    O    0.250000    0.250000    0.250000
O2    O    0.750000    0.750000    0.250000
O3    O    0.750000    0.250000    0.750000
O4    O    0.250000    0.750000    0.750000
O5    O    0.250000    0.250000    0.750000
O6    O    0.750000    0.750000    0.750000
O7    O    0.250000    0.750000    0.250000
O8    O    0.750000    0.250000    0.250000
O9    O    0.281870    0.218130    0.134000
O10    O    0.718130    0.781870    0.134000
O11    O    0.718130    0.218130    0.866000
O12    O    0.281870    0.781870    0.866000
O13    O    0.134000    0.281870    0.218130
O14    O    0.134000    0.718130    0.781870
O15    O    0.866000    0.718130    0.218130
O16    O    0.866000    0.281870    0.781870
O17    O    0.218130    0.134000    0.281870
O18    O    0.781870    0.134000    0.718130
O19    O    0.218130    0.866000    0.718130
O20    O    0.781870    0.866000    0.281870
O21    O    0.218130    0.281870    0.866000
O22    O    0.781870    0.718130    0.866000
O23    O    0.218130    0.718130    0.134000
O24    O    0.781870    0.281870    0.134000
O25    O    0.281870    0.134000    0.781870
O26    O    0.718130    0.134000    0.218130
O27    O    0.718130    0.866000    0.781870
O28    O    0.281870    0.866000    0.218130
O29    O    0.134000    0.218130    0.718130
O30    O    0.134000    0.781870    0.281870
O31    O    0.866000    0.218130    0.281870
O32    O    0.866000    0.781870    0.718130
O33    O    0.281870    0.718130    0.634000
O34    O    0.718130    0.281870    0.634000
O35    O    0.718130    0.718130    0.366000
O36    O    0.281870    0.281870    0.366000
O37    O    0.134000    0.781870    0.718130
O38    O    0.134000    0.218130    0.281870
O39    O    0.866000    0.218130    0.718130
O40    O    0.866000    0.781870    0.281870
O41    O    0.218130    0.634000    0.781870
O42    O    0.781870    0.634000    0.218130
O43    O    0.218130    0.366000    0.218130
O44    O    0.781870    0.366000    0.781870
O45    O    0.218130    0.781870    0.366000
O46    O    0.781870    0.218130    0.366000
O47    O    0.218130    0.218130    0.634000
O48    O    0.781870    0.781870    0.634000
O49    O    0.281870    0.634000    0.281870
O50    O    0.718130    0.634000    0.718130
O51    O    0.718130    0.366000    0.281870
O52    O    0.281870    0.366000    0.718130
O53    O    0.134000    0.718130    0.218130
O54    O    0.134000    0.281870    0.781870
O55    O    0.866000    0.718130    0.781870
O56    O    0.866000    0.281870    0.218130
O57    O    0.781870    0.218130    0.634000
O58    O    0.218130    0.781870    0.634000
O59    O    0.218130    0.218130    0.366000
O60    O    0.781870    0.781870    0.366000
O61    O    0.634000    0.281870    0.718130
O62    O    0.634000    0.718130    0.281870
O63    O    0.366000    0.718130    0.718130
O64    O    0.366000    0.281870    0.281870
O65    O    0.718130    0.134000    0.781870
O66    O    0.281870    0.134000    0.218130
O67    O    0.718130    0.866000    0.218130
O68    O    0.281870    0.866000    0.781870
O69    O    0.718130    0.281870    0.366000
O70    O    0.281870    0.718130    0.366000
O71    O    0.718130    0.718130    0.634000
O72    O    0.281870    0.281870    0.634000
O73    O    0.781870    0.134000    0.281870
O74    O    0.218130    0.134000    0.718130
O75    O    0.218130    0.866000    0.281870
O76    O    0.781870    0.866000    0.718130
O77    O    0.634000    0.218130    0.218130
O78    O    0.634000    0.781870    0.781870
O79    O    0.366000    0.218130    0.781870
O80    O    0.366000    0.781870    0.218130
O81    O    0.781870    0.718130    0.134000
O82    O    0.218130    0.281870    0.134000
O83    O    0.218130    0.718130    0.866000
O84    O    0.781870    0.281870    0.866000
O85    O    0.634000    0.781870    0.218130
O86    O    0.634000    0.218130    0.781870
O87    O    0.366000    0.218130    0.218130
O88    O    0.366000    0.781870    0.781870
O89    O    0.718130    0.634000    0.281870
O90    O    0.281870    0.634000    0.718130
O91    O    0.718130    0.366000    0.718130
O92    O    0.281870    0.366000    0.281870
O93    O    0.718130    0.781870    0.866000
O94    O    0.281870    0.218130    0.866000
O95    O    0.718130    0.218130    0.134000
O96    O    0.281870    0.781870    0.134000
O97    O    0.781870    0.634000    0.781870
O98    O    0.218130    0.634000    0.218130
O99    O    0.218130    0.366000    0.781870
O100    O    0.781870    0.366000    0.218130
O101    O    0.634000    0.718130    0.718130
O102    O    0.634000    0.281870    0.281870
O103    O    0.366000    0.718130    0.281870
O104    O    0.366000    0.281870    0.718130
C1    C    0.250000    0.250000    0.111300
C2    C    0.750000    0.750000    0.111300
C3    C    0.750000    0.250000    0.888700
C4    C    0.250000    0.750000    0.888700
C5    C    0.111300    0.250000    0.250000
C6    C    0.111300    0.750000    0.750000
C7    C    0.888700    0.750000    0.250000
C8    C    0.888700    0.250000    0.750000
C9    C    0.250000    0.111300    0.250000
C10    C    0.750000    0.111300    0.750000
C11    C    0.250000    0.888700    0.750000
C12    C    0.750000    0.888700    0.250000
C13    C    0.250000    0.250000    0.888700
C14    C    0.750000    0.750000    0.888700
C15    C    0.250000    0.750000    0.111300
C16    C    0.750000    0.250000    0.111300
C17    C    0.250000    0.111300    0.750000
C18    C    0.750000    0.111300    0.250000
C19    C    0.750000    0.888700    0.750000
C20    C    0.250000    0.888700    0.250000
C21    C    0.111300    0.250000    0.750000
C22    C    0.111300    0.750000    0.250000
C23    C    0.888700    0.250000    0.250000
C24    C    0.888700    0.750000    0.750000
C25    C    0.250000    0.750000    0.611300
C26    C    0.750000    0.250000    0.611300
C27    C    0.750000    0.750000    0.388700
C28    C    0.250000    0.250000    0.388700
C29    C    0.250000    0.611300    0.750000
C30    C    0.750000    0.611300    0.250000
C31    C    0.250000    0.388700    0.250000
C32    C    0.750000    0.388700    0.750000
C33    C    0.250000    0.750000    0.388700
C34    C    0.750000    0.250000    0.388700
C35    C    0.250000    0.250000    0.611300
C36    C    0.750000    0.750000    0.611300
C37    C    0.250000    0.611300    0.250000
C38    C    0.750000    0.611300    0.750000
C39    C    0.750000    0.388700    0.250000
C40    C    0.250000    0.388700    0.750000
C41    C    0.611300    0.250000    0.750000
C42    C    0.611300    0.750000    0.250000
C43    C    0.388700    0.750000    0.750000
C44    C    0.388700    0.250000    0.250000
C45    C    0.611300    0.250000    0.250000
C46    C    0.611300    0.750000    0.750000
C47    C    0.388700    0.250000    0.750000
C48    C    0.388700    0.750000    0.250000
C49    C    0.174440    0.325559    0.061575
C50    C    0.276601    0.223399    0.978276
C51    C    0.276648    0.223352    0.032393
C52    C    0.210292    0.289708    0.978284
C53    C    0.210150    0.289850    0.032611
C54    C    0.243454    0.256546    0.951249
C55    C    0.243542    0.256458    0.059597
H1    H    0.302336    0.197664    0.053270
H2    H    0.184735    0.315265    0.957030
H3    H    0.302243    0.197757    0.957289
F1    F    0.180147    0.319853    0.114577
F2    F    0.123689    0.314622    0.048494
F3    F    0.185378    0.376311    0.048494
C56    C    0.674440    0.825559    0.938425
C57    C    0.776601    0.723399    0.021724
C58    C    0.776648    0.723352    0.967607
C59    C    0.710292    0.789708    0.021716
C60    C    0.710150    0.789850    0.967389
C61    C    0.743454    0.756546    0.048751
C62    C    0.743542    0.756458    0.940403
H4    H    0.802336    0.697664    0.946730
H5    H    0.684735    0.815265    0.042970
H6    H    0.802243    0.697757    0.042711
F4    F    0.680147    0.819853    0.885423
F5    F    0.623689    0.814622    0.951506
F6    F    0.685378    0.876311    0.951506
C63    C    0.674440    0.174441    0.061575
C64    C    0.776601    0.276601    0.978276
C65    C    0.776648    0.276648    0.032393
C66    C    0.710292    0.210292    0.978284
C67    C    0.710150    0.210150    0.032611
C68    C    0.743454    0.243454    0.951249
C69    C    0.743542    0.243542    0.059597
H7    H    0.802336    0.302336    0.053270
H8    H    0.684735    0.184735    0.957030
H9    H    0.802243    0.302243    0.957289
F7    F    0.680147    0.180147    0.114577
F8    F    0.623689    0.185378    0.048494
F9    F    0.685378    0.123689    0.048494
C70    C    0.325560    0.825559    0.061575
C71    C    0.223399    0.723399    0.978276
C72    C    0.223352    0.723352    0.032393
C73    C    0.289708    0.789708    0.978284
C74    C    0.289850    0.789850    0.032611
C75    C    0.256546    0.756546    0.951249
C76    C    0.256458    0.756458    0.059597
H10    H    0.197664    0.697664    0.053270
H11    H    0.315265    0.815265    0.957030
H12    H    0.197757    0.697757    0.957289
F10    F    0.319853    0.819853    0.114577
F11    F    0.376311    0.814622    0.048494
F12    F    0.314622    0.876311    0.048494
C77    C    0.938425    0.325559    0.174440
C78    C    0.021724    0.223399    0.276601
C79    C    0.967607    0.223352    0.276648
C80    C    0.021716    0.289708    0.210292
C81    C    0.967389    0.289850    0.210150
C82    C    0.048751    0.256546    0.243454
C83    C    0.940403    0.256458    0.243542
H13    H    0.946730    0.197664    0.302336
H14    H    0.042970    0.315265    0.184735
H15    H    0.042711    0.197757    0.302243
F13    F    0.885423    0.319853    0.180147
F14    F    0.951506    0.314622    0.123689
F15    F    0.951506    0.376311    0.185378
C84    C    0.061575    0.825560    0.674441
C85    C    0.978276    0.723399    0.776601
C86    C    0.032393    0.723352    0.776648
C87    C    0.978284    0.789708    0.710292
C88    C    0.032611    0.789850    0.710150
C89    C    0.951249    0.756546    0.743454
C90    C    0.059597    0.756458    0.743542
H16    H    0.053270    0.697664    0.802336
H17    H    0.957030    0.815265    0.684735
H18    H    0.957289    0.697757    0.802243
F16    F    0.114577    0.819853    0.680147
F17    F    0.048494    0.876311    0.685378
F18    F    0.048494    0.814622    0.623689
C91    C    0.061575    0.825560    0.325559
C92    C    0.978276    0.723399    0.223399
C93    C    0.032393    0.723352    0.223352
C94    C    0.978284    0.789708    0.289708
C95    C    0.032611    0.789850    0.289850
C96    C    0.951249    0.756546    0.256546
C97    C    0.059597    0.756458    0.256458
H19    H    0.053270    0.697664    0.197664
H20    H    0.957030    0.815265    0.315265
H21    H    0.957289    0.697757    0.197757
F19    F    0.114577    0.819853    0.319853
F20    F    0.048494    0.876311    0.314622
F21    F    0.048494    0.814622    0.376311
C98    C    0.938425    0.325560    0.825559
C99    C    0.021724    0.223399    0.723399
C100    C    0.967607    0.223352    0.723352
C101    C    0.021716    0.289708    0.789708
C102    C    0.967389    0.289850    0.789850
C103    C    0.048751    0.256546    0.756546
C104    C    0.940403    0.256458    0.756458
H22    H    0.946730    0.197664    0.697664
H23    H    0.042970    0.315265    0.815265
H24    H    0.042711    0.197757    0.697757
F22    F    0.885423    0.319853    0.819853
F23    F    0.951506    0.376311    0.814622
F24    F    0.951506    0.314622    0.876311
C105    C    0.325560    0.938425    0.174441
C106    C    0.223399    0.021724    0.276601
C107    C    0.223352    0.967607    0.276648
C108    C    0.289708    0.021716    0.210292
C109    C    0.289850    0.967389    0.210150
C110    C    0.256546    0.048751    0.243454
C111    C    0.256458    0.940403    0.243542
H25    H    0.197664    0.946730    0.302336
H26    H    0.315265    0.042970    0.184735
H27    H    0.197757    0.042711    0.302243
F25    F    0.319853    0.885423    0.180147
F26    F    0.376311    0.951506    0.185378
F27    F    0.314622    0.951506    0.123689
C112    C    0.674440    0.938425    0.825559
C113    C    0.776601    0.021724    0.723399
C114    C    0.776648    0.967607    0.723352
C115    C    0.710292    0.021716    0.789708
C116    C    0.710150    0.967389    0.789850
C117    C    0.743454    0.048751    0.756546
C118    C    0.743542    0.940403    0.756458
H28    H    0.802336    0.946730    0.697664
H29    H    0.684735    0.042970    0.815265
H30    H    0.802243    0.042711    0.697757
F28    F    0.680147    0.885423    0.819853
F29    F    0.623689    0.951506    0.814622
F30    F    0.685378    0.951506    0.876311
C119    C    0.174440    0.938425    0.674441
C120    C    0.276601    0.021724    0.776601
C121    C    0.276648    0.967607    0.776648
C122    C    0.210292    0.021716    0.710292
C123    C    0.210150    0.967389    0.710150
C124    C    0.243454    0.048751    0.743454
C125    C    0.243542    0.940403    0.743542
H31    H    0.302336    0.946730    0.802336
H32    H    0.184735    0.042970    0.684735
H33    H    0.302243    0.042711    0.802243
F31    F    0.180147    0.885423    0.680147
F32    F    0.123689    0.951506    0.685378
F33    F    0.185378    0.951506    0.623689
C126    C    0.825560    0.061575    0.325559
C127    C    0.723399    0.978276    0.223399
C128    C    0.723352    0.032393    0.223352
C129    C    0.789708    0.978284    0.289708
C130    C    0.789850    0.032611    0.289850
C131    C    0.756546    0.951249    0.256546
C132    C    0.756458    0.059597    0.256458
H34    H    0.697664    0.053270    0.197664
H35    H    0.815265    0.957030    0.315265
H36    H    0.697757    0.957289    0.197757
F34    F    0.819853    0.114577    0.319853
F35    F    0.876311    0.048494    0.314622
F36    F    0.814622    0.048494    0.376311
C133    C    0.325560    0.674441    0.438425
C134    C    0.223399    0.776601    0.521724
C135    C    0.223352    0.776648    0.467607
C136    C    0.289708    0.710292    0.521716
C137    C    0.289850    0.710150    0.467389
C138    C    0.256546    0.743454    0.548751
C139    C    0.256458    0.743542    0.440403
H37    H    0.197664    0.802336    0.446730
H38    H    0.315265    0.684735    0.542970
H39    H    0.197757    0.802243    0.542711
F37    F    0.319853    0.680147    0.385423
F38    F    0.376311    0.685378    0.451506
F39    F    0.314622    0.623689    0.451506
C140    C    0.825560    0.174441    0.561575
C141    C    0.723399    0.276601    0.478276
C142    C    0.723352    0.276648    0.532393
C143    C    0.789708    0.210292    0.478284
C144    C    0.789850    0.210150    0.532611
C145    C    0.756546    0.243454    0.451249
C146    C    0.756458    0.243542    0.559597
H40    H    0.697664    0.302336    0.553270
H41    H    0.815265    0.184735    0.457030
H42    H    0.697757    0.302243    0.457289
F40    F    0.819853    0.180147    0.614577
F41    F    0.876311    0.185378    0.548494
F42    F    0.814622    0.123689    0.548494
C147    C    0.825560    0.825559    0.561575
C148    C    0.723399    0.723399    0.478276
C149    C    0.723352    0.723352    0.532393
C150    C    0.789708    0.789708    0.478284
C151    C    0.789850    0.789850    0.532611
C152    C    0.756546    0.756546    0.451249
C153    C    0.756458    0.756458    0.559597
H43    H    0.697664    0.697664    0.553270
H44    H    0.815265    0.815265    0.457030
H45    H    0.697757    0.697757    0.457289
F43    F    0.819853    0.819853    0.614577
F44    F    0.876311    0.814622    0.548494
F45    F    0.814622    0.876311    0.548494
C154    C    0.174440    0.174441    0.561575
C155    C    0.276601    0.276601    0.478276
C156    C    0.276648    0.276648    0.532393
C157    C    0.210292    0.210292    0.478284
C158    C    0.210150    0.210150    0.532611
C159    C    0.243454    0.243454    0.451249
C160    C    0.243542    0.243542    0.559597
H46    H    0.302336    0.302336    0.553270
H47    H    0.184735    0.184735    0.457030
H48    H    0.302243    0.302243    0.457289
F46    F    0.180147    0.180147    0.614577
F47    F    0.123689    0.185378    0.548494
F48    F    0.185378    0.123689    0.548494
C161    C    0.325560    0.438425    0.674441
C162    C    0.223399    0.521724    0.776601
C163    C    0.223352    0.467607    0.776648
C164    C    0.289708    0.521716    0.710292
C165    C    0.289850    0.467389    0.710150
C166    C    0.256546    0.548751    0.743454
C167    C    0.256458    0.440403    0.743542
H49    H    0.197664    0.446730    0.802336
H50    H    0.315265    0.542970    0.684735
H51    H    0.197757    0.542711    0.802243
F49    F    0.319853    0.385423    0.680147
F50    F    0.376311    0.451506    0.685378
F51    F    0.314622    0.451506    0.623689
C168    C    0.674440    0.561575    0.325559
C169    C    0.776601    0.478276    0.223399
C170    C    0.776648    0.532393    0.223352
C171    C    0.710292    0.478284    0.289708
C172    C    0.710150    0.532611    0.289850
C173    C    0.743454    0.451249    0.256546
C174    C    0.743542    0.559597    0.256458
H52    H    0.802336    0.553270    0.197664
H53    H    0.684735    0.457030    0.315265
H54    H    0.802243    0.457289    0.197757
F52    F    0.680147    0.614577    0.319853
F53    F    0.623689    0.548494    0.314622
F54    F    0.685378    0.548494    0.376311
C175    C    0.325560    0.561575    0.325559
C176    C    0.223399    0.478276    0.223399
C177    C    0.223352    0.532393    0.223352
C178    C    0.289708    0.478284    0.289708
C179    C    0.289850    0.532611    0.289850
C180    C    0.256546    0.451249    0.256546
C181    C    0.256458    0.559597    0.256458
H55    H    0.197664    0.553270    0.197664
H56    H    0.315265    0.457030    0.315265
H57    H    0.197757    0.457289    0.197757
F55    F    0.319853    0.614577    0.319853
F56    F    0.376311    0.548494    0.314622
F57    F    0.314622    0.548494    0.376311
C182    C    0.674440    0.438425    0.674441
C183    C    0.776601    0.521724    0.776601
C184    C    0.776648    0.467607    0.776648
C185    C    0.710292    0.521716    0.710292
C186    C    0.710150    0.467389    0.710150
C187    C    0.743454    0.548751    0.743454
C188    C    0.743542    0.440403    0.743542
H58    H    0.802336    0.446730    0.802336
H59    H    0.684735    0.542970    0.684735
H60    H    0.802243    0.542711    0.802243
F58    F    0.680147    0.385423    0.680147
F59    F    0.623689    0.451506    0.685378
F60    F    0.685378    0.451506    0.623689
C189    C    0.561575    0.174440    0.825559
C190    C    0.478276    0.276601    0.723399
C191    C    0.532393    0.276648    0.723352
C192    C    0.478284    0.210292    0.789708
C193    C    0.532611    0.210150    0.789850
C194    C    0.451249    0.243454    0.756546
C195    C    0.559597    0.243542    0.756458
H61    H    0.553270    0.302336    0.697664
H62    H    0.457030    0.184735    0.815265
H63    H    0.457289    0.302243    0.697757
F61    F    0.614577    0.180147    0.819853
F62    F    0.548494    0.123689    0.814622
F63    F    0.548494    0.185378    0.876311
C196    C    0.438425    0.825560    0.174441
C197    C    0.521724    0.723399    0.276601
C198    C    0.467607    0.723352    0.276648
C199    C    0.521716    0.789708    0.210292
C200    C    0.467389    0.789850    0.210150
C201    C    0.548751    0.756546    0.243454
C202    C    0.440403    0.756458    0.243542
H64    H    0.446730    0.697664    0.302336
H65    H    0.542970    0.815265    0.184735
H66    H    0.542711    0.697757    0.302243
F64    F    0.385423    0.819853    0.180147
F65    F    0.451506    0.876311    0.185378
F66    F    0.451506    0.814622    0.123689
C203    C    0.438425    0.825559    0.825560
C204    C    0.521724    0.723399    0.723399
C205    C    0.467607    0.723352    0.723352
C206    C    0.521716    0.789708    0.789708
C207    C    0.467389    0.789850    0.789850
C208    C    0.548751    0.756546    0.756546
C209    C    0.440403    0.756458    0.756458
H67    H    0.446730    0.697664    0.697664
H68    H    0.542970    0.815265    0.815265
H69    H    0.542711    0.697757    0.697757
F67    F    0.385423    0.819853    0.819853
F68    F    0.451506    0.814622    0.876311
F69    F    0.451506    0.876311    0.814622
C210    C    0.561575    0.174441    0.174440
C211    C    0.478276    0.276601    0.276601
C212    C    0.532393    0.276648    0.276648
C213    C    0.478284    0.210292    0.210292
C214    C    0.532611    0.210150    0.210150
C215    C    0.451249    0.243454    0.243454
C216    C    0.559597    0.243542    0.243542
H70    H    0.553270    0.302336    0.302336
H71    H    0.457030    0.184735    0.184735
H72    H    0.457289    0.302243    0.302243
F70    F    0.614577    0.180147    0.180147
F71    F    0.548494    0.185378    0.123689
F72    F    0.548494    0.123689    0.185378

loop_
_geom_bond_atom_site_label_1
_geom_bond_atom_site_label_2
_geom_bond_distance
Zn1    O1    0.07514
Zn1    O9    0.07442
Zn1    O66    0.07442
Zn1    O87    0.07442
Zn2    O2    0.07514
Zn2    O10    0.07442
Zn2    O67    0.07442
Zn2    O85    0.07442
Zn3    O3    0.07514
Zn3    O11    0.07442
Zn3    O65    0.07442
Zn3    O86    0.07442
Zn4    O4    0.07514
Zn4    O12    0.07442
Zn4    O68    0.07442
Zn4    O88    0.07442
Zn5    O1    0.07514
Zn5    O13    0.07442
Zn5    O43    0.07442
Zn5    O82    0.07442
Zn6    O4    0.07514
Zn6    O14    0.07442
Zn6    O41    0.07442
Zn6    O83    0.07442
Zn7    O2    0.07514
Zn7    O15    0.07442
Zn7    O42    0.07442
Zn7    O81    0.07442
Zn8    O3    0.07514
Zn8    O16    0.07442
Zn8    O44    0.07442
Zn8    O84    0.07442
Zn9    O1    0.07514
Zn9    O17    0.07442
Zn9    O38    0.07442
Zn9    O59    0.07442
Zn10    O3    0.07514
Zn10    O18    0.07442
Zn10    O39    0.07442
Zn10    O57    0.07442
Zn11    O4    0.07514
Zn11    O19    0.07442
Zn11    O37    0.07442
Zn11    O58    0.07442
Zn12    O2    0.07514
Zn12    O20    0.07442
Zn12    O40    0.07442
Zn12    O60    0.07442
Zn13    O5    0.07514
Zn13    O21    0.07442
Zn13    O54    0.07442
Zn13    O99    0.07442
Zn14    O6    0.07514
Zn14    O22    0.07442
Zn14    O55    0.07442
Zn14    O97    0.07442
Zn15    O7    0.07514
Zn15    O23    0.07442
Zn15    O53    0.07442
Zn15    O98    0.07442
Zn16    O8    0.07514
Zn16    O24    0.07442
Zn16    O56    0.07442
Zn16    O100    0.07442
Zn17    O5    0.07514
Zn17    O25    0.07442
Zn17    O79    0.07442
Zn17    O94    0.07442
Zn18    O8    0.07514
Zn18    O26    0.07442
Zn18    O77    0.07442
Zn18    O95    0.07442
Zn19    O6    0.07514
Zn19    O27    0.07442
Zn19    O78    0.07442
Zn19    O93    0.07442
Zn20    O7    0.07514
Zn20    O28    0.07442
Zn20    O80    0.07442
Zn20    O96    0.07442
Zn21    O5    0.07514
Zn21    O29    0.07442
Zn21    O47    0.07442
Zn21    O74    0.07442
Zn22    O7    0.07514
Zn22    O30    0.07442
Zn22    O45    0.07442
Zn22    O75    0.07442
Zn23    O8    0.07514
Zn23    O31    0.07442
Zn23    O46    0.07442
Zn23    O73    0.07442
Zn24    O6    0.07514
Zn24    O32    0.07442
Zn24    O48    0.07442
Zn24    O76    0.07442
Zn25    O4    0.07514
Zn25    O33    0.07442
Zn25    O63    0.07442
Zn25    O90    0.07442
Zn26    O3    0.07514
Zn26    O34    0.07442
Zn26    O61    0.07442
Zn26    O91    0.07442
Zn27    O2    0.07514
Zn27    O35    0.07442
Zn27    O62    0.07442
Zn27    O89    0.07442
Zn28    O1    0.07514
Zn28    O36    0.07442
Zn28    O64    0.07442
Zn28    O92    0.07442
Zn29    O7    0.07514
Zn29    O49    0.07442
Zn29    O70    0.07442
Zn29    O103    0.07442
Zn30    O6    0.07514
Zn30    O50    0.07442
Zn30    O71    0.07442
Zn30    O101    0.07442
Zn31    O8    0.07514
Zn31    O51    0.07442
Zn31    O69    0.07442
Zn31    O102    0.07442
Zn32    O5    0.07514
Zn32    O52    0.07442
Zn32    O72    0.07442
Zn32    O104    0.07442
O9    C1    0.05046
O10    C2    0.05046
O11    C3    0.05046
O12    C4    0.05046
O13    C5    0.05046
O14    C6    0.05046
O15    C7    0.05046
O16    C8    0.05046
O17    C9    0.05046
O18    C10    0.05046
O19    C11    0.05046
O20    C12    0.05046
O21    C13    0.05046
O22    C14    0.05046
O23    C15    0.05046
O24    C16    0.05046
O25    C17    0.05046
O26    C18    0.05046
O27    C19    0.05046
O28    C20    0.05046
O29    C21    0.05046
O30    C22    0.05046
O31    C23    0.05046
O32    C24    0.05046
O33    C25    0.05046
O34    C26    0.05046
O35    C27    0.05046
O36    C28    0.05046
O37    C6    0.05046
O38    C5    0.05046
O39    C8    0.05046
O40    C7    0.05046
O41    C29    0.05046
O42    C30    0.05046
O43    C31    0.05046
O44    C32    0.05046
O45    C33    0.05046
O46    C34    0.05046
O47    C35    0.05046
O48    C36    0.05046
O49    C37    0.05046
O50    C38    0.05046
O51    C39    0.05046
O52    C40    0.05046
O53    C22    0.05046
O54    C21    0.05046
O55    C24    0.05046
O56    C23    0.05046
O57    C26    0.05046
O58    C25    0.05046
O59    C28    0.05046
O60    C27    0.05046
O61    C41    0.05046
O62    C42    0.05046
O63    C43    0.05046
O64    C44    0.05046
O65    C10    0.05046
O66    C9    0.05046
O67    C12    0.05046
O68    C11    0.05046
O69    C34    0.05046
O70    C33    0.05046
O71    C36    0.05046
O72    C35    0.05046
O73    C18    0.05046
O74    C17    0.05046
O75    C20    0.05046
O76    C19    0.05046
O77    C45    0.05046
O78    C46    0.05046
O79    C47    0.05046
O80    C48    0.05046
O81    C2    0.05046
O82    C1    0.05046
O83    C4    0.05046
O84    C3    0.05046
O85    C42    0.05046
O86    C41    0.05046
O87    C44    0.05046
O88    C43    0.05046
O89    C30    0.05046
O90    C29    0.05046
O91    C32    0.05046
O92    C31    0.05046
O93    C14    0.05046
O94    C13    0.05046
O95    C16    0.05046
O96    C15    0.05046
O97    C38    0.05046
O98    C37    0.05046
O99    C40    0.05046
O100    C39    0.05046
O101    C46    0.05046
O102    C45    0.05046
O103    C48    0.05046
O104    C47    0.05046
C1    C55    0.05250
C2    C61    0.06323
C3    C68    0.06323
C4    C75    0.06323
C5    C82    0.06323
C6    C90    0.05250
C7    C96    0.06323
C8    C104    0.05250
C9    C110    0.06323
C10    C117    0.06323
C11    C125    0.05250
C12    C131    0.06323
C13    C54    0.06323
C14    C62    0.05250
C15    C76    0.05250
C16    C69    0.05250
C17    C124    0.06323
C18    C132    0.05250
C19    C118    0.05250
C20    C111    0.05250
C21    C103    0.06323
C22    C97    0.05250
C23    C83    0.05250
C24    C89    0.06323
C25    C138    0.06323
C26    C146    0.05250
C27    C152    0.06323
C28    C159    0.06323
C29    C166    0.06323
C30    C174    0.05250
C31    C180    0.06323
C32    C188    0.05250
C33    C139    0.05250
C34    C145    0.06323
C35    C160    0.05250
C36    C153    0.05250
C37    C181    0.05250
C38    C187    0.06323
C39    C173    0.06323
C40    C167    0.05250
C41    C195    0.05250
C42    C201    0.06323
C43    C209    0.05250
C44    C215    0.06323
C45    C216    0.05250
C46    C208    0.06323
C47    C194    0.06323
C48    C202    0.05250
C49    C53    0.05822
C49    F1    0.05361
C49    F2    0.05354
C49    F3    0.05354
C50    C51    0.05412
C50    C54    0.05411
C50    H3    0.04190
C51    C55    0.05415
C51    H1    0.04190
C52    C53    0.05433
C52    C54    0.05413
C52    H2    0.04193
C53    C55    0.05439
C56    C60    0.05822
C56    F4    0.05361
C56    F5    0.05354
C56    F6    0.05354
C57    C58    0.05412
C57    C61    0.05411
C57    H6    0.04190
C58    C62    0.05415
C58    H4    0.04190
C59    C60    0.05433
C59    C61    0.05413
C59    H5    0.04193
C60    C62    0.05439
C63    C67    0.05822
C63    F7    0.05361
C63    F8    0.05354
C63    F9    0.05354
C64    C65    0.05412
C64    C68    0.05411
C64    H9    0.04190
C65    C69    0.05415
C65    H7    0.04190
C66    C67    0.05433
C66    C68    0.05413
C66    H8    0.04193
C67    C69    0.05439
C70    C74    0.05822
C70    F10    0.05361
C70    F11    0.05354
C70    F12    0.05354
C71    C72    0.05412
C71    C75    0.05411
C71    H12    0.04190
C72    C76    0.05415
C72    H10    0.04190
C73    C74    0.05433
C73    C75    0.05413
C73    H11    0.04193
C74    C76    0.05439
C77    C81    0.05822
C77    F13    0.05361
C77    F14    0.05354
C77    F15    0.05354
C78    C79    0.05412
C78    C82    0.05411
C78    H15    0.04190
C79    C83    0.05415
C79    H13    0.04190
C80    C81    0.05433
C80    C82    0.05413
C80    H14    0.04193
C81    C83    0.05439
C84    C88    0.05822
C84    F16    0.05361
C84    F17    0.05354
C84    F18    0.05354
C85    C86    0.05412
C85    C89    0.05411
C85    H18    0.04190
C86    C90    0.05415
C86    H16    0.04190
C87    C88    0.05433
C87    C89    0.05413
C87    H17    0.04193
C88    C90    0.05439
C91    C95    0.05822
C91    F19    0.05361
C91    F20    0.05354
C91    F21    0.05354
C92    C93    0.05412
C92    C96    0.05411
C92    H21    0.04190
C93    C97    0.05415
C93    H19    0.04190
C94    C95    0.05433
C94    C96    0.05413
C94    H20    0.04193
C95    C97    0.05439
C98    C102    0.05822
C98    F22    0.05361
C98    F23    0.05354
C98    F24    0.05354
C99    C100    0.05412
C99    C103    0.05411
C99    H24    0.04190
C100    C104    0.05415
C100    H22    0.04190
C101    C102    0.05433
C101    C103    0.05413
C101    H23    0.04193
C102    C104    0.05439
C105    C109    0.05822
C105    F25    0.05361
C105    F26    0.05354
C105    F27    0.05354
C106    C107    0.05412
C106    C110    0.05411
C106    H27    0.04190
C107    C111    0.05415
C107    H25    0.04190
C108    C109    0.05433
C108    C110    0.05413
C108    H26    0.04193
C109    C111    0.05439
C112    C116    0.05822
C112    F28    0.05361
C112    F29    0.05354
C112    F30    0.05354
C113    C114    0.05412
C113    C117    0.05411
C113    H30    0.04190
C114    C118    0.05415
C114    H28    0.04190
C115    C116    0.05433
C115    C117    0.05413
C115    H29    0.04193
C116    C118    0.05439
C119    C123    0.05822
C119    F31    0.05361
C119    F32    0.05354
C119    F33    0.05354
C120    C121    0.05412
C120    C124    0.05411
C120    H33    0.04190
C121    C125    0.05415
C121    H31    0.04190
C122    C123    0.05433
C122    C124    0.05413
C122    H32    0.04193
C123    C125    0.05439
C126    C130    0.05822
C126    F34    0.05361
C126    F35    0.05354
C126    F36    0.05354
C127    C128    0.05412
C127    C131    0.05411
C127    H36    0.04190
C128    C132    0.05415
C128    H34    0.04190
C129    C130    0.05433
C129    C131    0.05413
C129    H35    0.04193
C130    C132    0.05439
C133    C137    0.05822
C133    F37    0.05361
C133    F38    0.05354
C133    F39    0.05354
C134    C135    0.05412
C134    C138    0.05411
C134    H39    0.04190
C135    C139    0.05415
C135    H37    0.04190
C136    C137    0.05433
C136    C138    0.05413
C136    H38    0.04193
C137    C139    0.05439
C140    C144    0.05822
C140    F40    0.05361
C140    F41    0.05354
C140    F42    0.05354
C141    C142    0.05412
C141    C145    0.05411
C141    H42    0.04190
C142    C146    0.05415
C142    H40    0.04190
C143    C144    0.05433
C143    C145    0.05413
C143    H41    0.04193
C144    C146    0.05439
C147    C151    0.05822
C147    F43    0.05361
C147    F44    0.05354
C147    F45    0.05354
C148    C149    0.05412
C148    C152    0.05411
C148    H45    0.04190
C149    C153    0.05415
C149    H43    0.04190
C150    C151    0.05433
C150    C152    0.05413
C150    H44    0.04193
C151    C153    0.05439
C154    C158    0.05822
C154    F46    0.05361
C154    F47    0.05354
C154    F48    0.05354
C155    C156    0.05412
C155    C159    0.05411
C155    H48    0.04190
C156    C160    0.05415
C156    H46    0.04190
C157    C158    0.05433
C157    C159    0.05413
C157    H47    0.04193
C158    C160    0.05439
C161    C165    0.05822
C161    F49    0.05361
C161    F50    0.05354
C161    F51    0.05354
C162    C163    0.05412
C162    C166    0.05411
C162    H51    0.04190
C163    C167    0.05415
C163    H49    0.04190
C164    C165    0.05433
C164    C166    0.05413
C164    H50    0.04193
C165    C167    0.05439
C168    C172    0.05822
C168    F52    0.05361
C168    F53    0.05354
C168    F54    0.05354
C169    C170    0.05412
C169    C173    0.05411
C169    H54    0.04190
C170    C174    0.05415
C170    H52    0.04190
C171    C172    0.05433
C171    C173    0.05413
C171    H53    0.04193
C172    C174    0.05439
C175    C179    0.05822
C175    F55    0.05361
C175    F56    0.05354
C175    F57    0.05354
C176    C177    0.05412
C176    C180    0.05411
C176    H57    0.04190
C177    C181    0.05415
C177    H55    0.04190
C178    C179    0.05433
C178    C180    0.05413
C178    H56    0.04193
C179    C181    0.05439
C182    C186    0.05822
C182    F58    0.05361
C182    F59    0.05354
C182    F60    0.05354
C183    C184    0.05412
C183    C187    0.05411
C183    H60    0.04190
C184    C188    0.05415
C184    H58    0.04190
C185    C186    0.05433
C185    C187    0.05413
C185    H59    0.04193
C186    C188    0.05439
C189    C193    0.05822
C189    F61    0.05361
C189    F62    0.05354
C189    F63    0.05354
C190    C191    0.05412
C190    C194    0.05411
C190    H63    0.04190
C191    C195    0.05415
C191    H61    0.04190
C192    C193    0.05433
C192    C194    0.05413
C192    H62    0.04193
C193    C195    0.05439
C196    C200    0.05822
C196    F64    0.05361
C196    F65    0.05354
C196    F66    0.05354
C197    C198    0.05412
C197    C201    0.05411
C197    H66    0.04190
C198    C202    0.05415
C198    H64    0.04190
C199    C200    0.05433
C199    C201    0.05413
C199    H65    0.04193
C200    C202    0.05439
C203    C207    0.05822
C203    F67    0.05361
C203    F68    0.05354
C203    F69    0.05354
C204    C205    0.05412
C204    C208    0.05411
C204    H69    0.04190
C205    C209    0.05415
C205    H67    0.04190
C206    C207    0.05433
C206    C208    0.05413
C206    H68    0.04193
C207    C209    0.05439
C210    C214    0.05822
C210    F70    0.05361
C210    F71    0.05354
C210    F72    0.05354
C211    C212    0.05412
C211    C215    0.05411
C211    H72    0.04190
C212    C216    0.05415
C212    H70    0.04190
C213    C214    0.05433
C213    C215    0.05413
C213    H71    0.04193
C214    C216    0.05439
