data_new_xtal_PM
_symmetry_space_group_name_H-M    'P1'
_cell_length_a    25.832000
_cell_length_b    25.832000
_cell_length_c    25.832000
_cell_angle_alpha    90.000000
_cell_angle_beta    90.000000
_cell_angle_gamma    90.000000
_symmetry_Int_Tables_number 1

loop_
_symmetry_equiv_pos_as_xyz
'x,y,z'

loop_
_atom_site_label
_atom_site_type_symbol
_atom_site_fract_x
_atom_site_fract_y
_atom_site_fract_z
Zn1    Zn    0.293380    0.206620    0.206620
Zn2    Zn    0.706620    0.793380    0.206620
Zn3    Zn    0.706620    0.206620    0.793380
Zn4    Zn    0.293380    0.793380    0.793380
Zn5    Zn    0.206620    0.293380    0.206620
Zn6    Zn    0.206620    0.706620    0.793380
Zn7    Zn    0.793380    0.706620    0.206620
Zn8    Zn    0.793380    0.293380    0.793380
Zn9    Zn    0.206620    0.206620    0.293380
Zn10    Zn    0.793380    0.206620    0.706620
Zn11    Zn    0.206620    0.793380    0.706620
Zn12    Zn    0.793380    0.793380    0.293380
Zn13    Zn    0.206620    0.293380    0.793380
Zn14    Zn    0.793380    0.706620    0.793380
Zn15    Zn    0.206620    0.706620    0.206620
Zn16    Zn    0.793380    0.293380    0.206620
Zn17    Zn    0.293380    0.206620    0.793380
Zn18    Zn    0.706620    0.206620    0.206620
Zn19    Zn    0.706620    0.793380    0.793380
Zn20    Zn    0.293380    0.793380    0.206620
Zn21    Zn    0.206620    0.206620    0.706620
Zn22    Zn    0.206620    0.793380    0.293380
Zn23    Zn    0.793380    0.206620    0.293380
Zn24    Zn    0.793380    0.793380    0.706620
Zn25    Zn    0.293380    0.706620    0.706620
Zn26    Zn    0.706620    0.293380    0.706620
Zn27    Zn    0.706620    0.706620    0.293380
Zn28    Zn    0.293380    0.293380    0.293380
Zn29    Zn    0.293380    0.706620    0.293380
Zn30    Zn    0.706620    0.706620    0.706620
Zn31    Zn    0.706620    0.293380    0.293380
Zn32    Zn    0.293380    0.293380    0.706620
O1    O    0.250000    0.250000    0.250000
O2    O    0.750000    0.750000    0.250000
O3    O    0.750000    0.250000    0.750000
O4    O    0.250000    0.750000    0.750000
O5    O    0.250000    0.250000    0.750000
O6    O    0.750000    0.750000    0.750000
O7    O    0.250000    0.750000    0.250000
O8    O    0.750000    0.250000    0.250000
O9    O    0.281870    0.218130    0.134000
O10    O    0.718130    0.781870    0.134000
O11    O    0.718130    0.218130    0.866000
O12    O    0.281870    0.781870    0.866000
O13    O    0.134000    0.281870    0.218130
O14    O    0.134000    0.718130    0.781870
O15    O    0.866000    0.718130    0.218130
O16    O    0.866000    0.281870    0.781870
O17    O    0.218130    0.134000    0.281870
O18    O    0.781870    0.134000    0.718130
O19    O    0.218130    0.866000    0.718130
O20    O    0.781870    0.866000    0.281870
O21    O    0.218130    0.281870    0.866000
O22    O    0.781870    0.718130    0.866000
O23    O    0.218130    0.718130    0.134000
O24    O    0.781870    0.281870    0.134000
O25    O    0.281870    0.134000    0.781870
O26    O    0.718130    0.134000    0.218130
O27    O    0.718130    0.866000    0.781870
O28    O    0.281870    0.866000    0.218130
O29    O    0.134000    0.218130    0.718130
O30    O    0.134000    0.781870    0.281870
O31    O    0.866000    0.218130    0.281870
O32    O    0.866000    0.781870    0.718130
O33    O    0.281870    0.718130    0.634000
O34    O    0.718130    0.281870    0.634000
O35    O    0.718130    0.718130    0.366000
O36    O    0.281870    0.281870    0.366000
O37    O    0.134000    0.781870    0.718130
O38    O    0.134000    0.218130    0.281870
O39    O    0.866000    0.218130    0.718130
O40    O    0.866000    0.781870    0.281870
O41    O    0.218130    0.634000    0.781870
O42    O    0.781870    0.634000    0.218130
O43    O    0.218130    0.366000    0.218130
O44    O    0.781870    0.366000    0.781870
O45    O    0.218130    0.781870    0.366000
O46    O    0.781870    0.218130    0.366000
O47    O    0.218130    0.218130    0.634000
O48    O    0.781870    0.781870    0.634000
O49    O    0.281870    0.634000    0.281870
O50    O    0.718130    0.634000    0.718130
O51    O    0.718130    0.366000    0.281870
O52    O    0.281870    0.366000    0.718130
O53    O    0.134000    0.718130    0.218130
O54    O    0.134000    0.281870    0.781870
O55    O    0.866000    0.718130    0.781870
O56    O    0.866000    0.281870    0.218130
O57    O    0.781870    0.218130    0.634000
O58    O    0.218130    0.781870    0.634000
O59    O    0.218130    0.218130    0.366000
O60    O    0.781870    0.781870    0.366000
O61    O    0.634000    0.281870    0.718130
O62    O    0.634000    0.718130    0.281870
O63    O    0.366000    0.718130    0.718130
O64    O    0.366000    0.281870    0.281870
O65    O    0.718130    0.134000    0.781870
O66    O    0.281870    0.134000    0.218130
O67    O    0.718130    0.866000    0.218130
O68    O    0.281870    0.866000    0.781870
O69    O    0.718130    0.281870    0.366000
O70    O    0.281870    0.718130    0.366000
O71    O    0.718130    0.718130    0.634000
O72    O    0.281870    0.281870    0.634000
O73    O    0.781870    0.134000    0.281870
O74    O    0.218130    0.134000    0.718130
O75    O    0.218130    0.866000    0.281870
O76    O    0.781870    0.866000    0.718130
O77    O    0.634000    0.218130    0.218130
O78    O    0.634000    0.781870    0.781870
O79    O    0.366000    0.218130    0.781870
O80    O    0.366000    0.781870    0.218130
O81    O    0.781870    0.718130    0.134000
O82    O    0.218130    0.281870    0.134000
O83    O    0.218130    0.718130    0.866000
O84    O    0.781870    0.281870    0.866000
O85    O    0.634000    0.781870    0.218130
O86    O    0.634000    0.218130    0.781870
O87    O    0.366000    0.218130    0.218130
O88    O    0.366000    0.781870    0.781870
O89    O    0.718130    0.634000    0.281870
O90    O    0.281870    0.634000    0.718130
O91    O    0.718130    0.366000    0.718130
O92    O    0.281870    0.366000    0.281870
O93    O    0.718130    0.781870    0.866000
O94    O    0.281870    0.218130    0.866000
O95    O    0.718130    0.218130    0.134000
O96    O    0.281870    0.781870    0.134000
O97    O    0.781870    0.634000    0.781870
O98    O    0.218130    0.634000    0.218130
O99    O    0.218130    0.366000    0.781870
O100    O    0.781870    0.366000    0.218130
O101    O    0.634000    0.718130    0.718130
O102    O    0.634000    0.281870    0.281870
O103    O    0.366000    0.718130    0.281870
O104    O    0.366000    0.281870    0.718130
C1    C    0.250000    0.250000    0.111300
C2    C    0.750000    0.750000    0.111300
C3    C    0.750000    0.250000    0.888700
C4    C    0.250000    0.750000    0.888700
C5    C    0.111300    0.250000    0.250000
C6    C    0.111300    0.750000    0.750000
C7    C    0.888700    0.750000    0.250000
C8    C    0.888700    0.250000    0.750000
C9    C    0.250000    0.111300    0.250000
C10    C    0.750000    0.111300    0.750000
C11    C    0.250000    0.888700    0.750000
C12    C    0.750000    0.888700    0.250000
C13    C    0.250000    0.250000    0.888700
C14    C    0.750000    0.750000    0.888700
C15    C    0.250000    0.750000    0.111300
C16    C    0.750000    0.250000    0.111300
C17    C    0.250000    0.111300    0.750000
C18    C    0.750000    0.111300    0.250000
C19    C    0.750000    0.888700    0.750000
C20    C    0.250000    0.888700    0.250000
C21    C    0.111300    0.250000    0.750000
C22    C    0.111300    0.750000    0.250000
C23    C    0.888700    0.250000    0.250000
C24    C    0.888700    0.750000    0.750000
C25    C    0.250000    0.750000    0.611300
C26    C    0.750000    0.250000    0.611300
C27    C    0.750000    0.750000    0.388700
C28    C    0.250000    0.250000    0.388700
C29    C    0.250000    0.611300    0.750000
C30    C    0.750000    0.611300    0.250000
C31    C    0.250000    0.388700    0.250000
C32    C    0.750000    0.388700    0.750000
C33    C    0.250000    0.750000    0.388700
C34    C    0.750000    0.250000    0.388700
C35    C    0.250000    0.250000    0.611300
C36    C    0.750000    0.750000    0.611300
C37    C    0.250000    0.611300    0.250000
C38    C    0.750000    0.611300    0.750000
C39    C    0.750000    0.388700    0.250000
C40    C    0.250000    0.388700    0.750000
C41    C    0.611300    0.250000    0.750000
C42    C    0.611300    0.750000    0.250000
C43    C    0.388700    0.750000    0.750000
C44    C    0.388700    0.250000    0.250000
C45    C    0.611300    0.250000    0.250000
C46    C    0.611300    0.750000    0.750000
C47    C    0.388700    0.250000    0.750000
C48    C    0.388700    0.750000    0.250000
C49    C    0.250000    0.250000    0.053800
C50    C    0.750000    0.250000    0.946200
C51    C    0.250000    0.750000    0.946200
C52    C    0.053800    0.250000    0.250000
C53    C    0.053800    0.750000    0.750000
C54    C    0.946200    0.250000    0.750000
C55    C    0.750000    0.053800    0.750000
C56    C    0.750000    0.946200    0.250000
C57    C    0.250000    0.250000    0.946200
C58    C    0.250000    0.750000    0.053800
C59    C    0.750000    0.250000    0.053800
C60    C    0.750000    0.053800    0.250000
C61    C    0.750000    0.946200    0.750000
C62    C    0.053800    0.250000    0.750000
C63    C    0.946200    0.250000    0.250000
C64    C    0.946200    0.750000    0.750000
C65    C    0.750000    0.250000    0.553800
C66    C    0.750000    0.750000    0.446200
C67    C    0.250000    0.250000    0.446200
C68    C    0.250000    0.553800    0.750000
C69    C    0.750000    0.553800    0.250000
C70    C    0.250000    0.446200    0.250000
C71    C    0.750000    0.446200    0.750000
C72    C    0.750000    0.250000    0.446200
C73    C    0.250000    0.250000    0.553800
C74    C    0.750000    0.750000    0.553800
C75    C    0.250000    0.553800    0.250000
C76    C    0.750000    0.553800    0.750000
C77    C    0.750000    0.446200    0.250000
C78    C    0.250000    0.446200    0.750000
C79    C    0.553800    0.750000    0.250000
C80    C    0.446200    0.750000    0.750000
C81    C    0.446200    0.250000    0.250000
C82    C    0.553800    0.250000    0.250000
C83    C    0.553800    0.750000    0.750000
C84    C    0.446200    0.750000    0.250000
C85    C    0.282900    0.217100    0.026900
C86    C    0.717100    0.217100    0.973100
C87    C    0.282900    0.782900    0.973100
C88    C    0.026900    0.282900    0.217100
C89    C    0.026900    0.717100    0.782900
C90    C    0.973100    0.282900    0.782900
C91    C    0.782900    0.026900    0.717100
C92    C    0.782900    0.973100    0.282900
C93    C    0.217100    0.282900    0.973100
C94    C    0.217100    0.717100    0.026900
C95    C    0.782900    0.282900    0.026900
C96    C    0.717100    0.026900    0.217100
C97    C    0.717100    0.973100    0.782900
C98    C    0.026900    0.217100    0.717100
C99    C    0.973100    0.217100    0.282900
C100    C    0.973100    0.782900    0.717100
C101    C    0.717100    0.282900    0.526900
C102    C    0.717100    0.717100    0.473100
C103    C    0.282900    0.282900    0.473100
C104    C    0.026900    0.782900    0.717100
C105    C    0.026900    0.217100    0.282900
C106    C    0.973100    0.217100    0.717100
C107    C    0.217100    0.526900    0.782900
C108    C    0.782900    0.526900    0.217100
C109    C    0.217100    0.473100    0.217100
C110    C    0.782900    0.473100    0.782900
C111    C    0.782900    0.217100    0.473100
C112    C    0.217100    0.217100    0.526900
C113    C    0.782900    0.782900    0.526900
C114    C    0.282900    0.526900    0.282900
C115    C    0.717100    0.526900    0.717100
C116    C    0.717100    0.473100    0.282900
C117    C    0.282900    0.473100    0.717100
C118    C    0.026900    0.282900    0.782900
C119    C    0.973100    0.717100    0.782900
C120    C    0.973100    0.282900    0.217100
C121    C    0.782900    0.217100    0.526900
C122    C    0.217100    0.217100    0.473100
C123    C    0.782900    0.782900    0.473100
C124    C    0.526900    0.717100    0.282900
C125    C    0.473100    0.717100    0.717100
C126    C    0.473100    0.282900    0.282900
C127    C    0.717100    0.026900    0.782900
C128    C    0.717100    0.973100    0.217100
C129    C    0.717100    0.282900    0.473100
C130    C    0.717100    0.717100    0.526900
C131    C    0.282900    0.282900    0.526900
C132    C    0.782900    0.026900    0.282900
C133    C    0.782900    0.973100    0.717100
C134    C    0.526900    0.217100    0.217100
C135    C    0.526900    0.782900    0.782900
C136    C    0.473100    0.782900    0.217100
C137    C    0.217100    0.282900    0.026900
C138    C    0.217100    0.717100    0.973100
C139    C    0.782900    0.282900    0.973100
C140    C    0.526900    0.782900    0.217100
C141    C    0.473100    0.217100    0.217100
C142    C    0.473100    0.782900    0.782900
C143    C    0.717100    0.526900    0.282900
C144    C    0.282900    0.526900    0.717100
C145    C    0.717100    0.473100    0.717100
C146    C    0.282900    0.473100    0.282900
C147    C    0.282900    0.217100    0.973100
C148    C    0.717100    0.217100    0.026900
C149    C    0.282900    0.782900    0.026900
C150    C    0.782900    0.526900    0.782900
C151    C    0.217100    0.526900    0.217100
C152    C    0.217100    0.473100    0.782900
C153    C    0.782900    0.473100    0.217100
C154    C    0.526900    0.717100    0.717100
C155    C    0.526900    0.282900    0.282900
C156    C    0.473100    0.717100    0.282900
H1    H    0.304900    0.195100    0.044800
H2    H    0.695100    0.195100    0.955200
H3    H    0.304900    0.804900    0.955200
H4    H    0.044800    0.304900    0.195100
H5    H    0.044800    0.695100    0.804900
H6    H    0.955200    0.304900    0.804900
H7    H    0.804900    0.044800    0.695100
H8    H    0.804900    0.955200    0.304900
H9    H    0.195100    0.304900    0.955200
H10    H    0.195100    0.695100    0.044800
H11    H    0.804900    0.304900    0.044800
H12    H    0.695100    0.044800    0.195100
H13    H    0.695100    0.955200    0.804900
H14    H    0.044800    0.195100    0.695100
H15    H    0.955200    0.195100    0.304900
H16    H    0.955200    0.804900    0.695100
H17    H    0.695100    0.304900    0.544800
H18    H    0.695100    0.695100    0.455200
H19    H    0.304900    0.304900    0.455200
H20    H    0.044800    0.804900    0.695100
H21    H    0.044800    0.195100    0.304900
H22    H    0.955200    0.195100    0.695100
H23    H    0.195100    0.544800    0.804900
H24    H    0.804900    0.544800    0.195100
H25    H    0.195100    0.455200    0.195100
H26    H    0.804900    0.455200    0.804900
H27    H    0.804900    0.195100    0.455200
H28    H    0.195100    0.195100    0.544800
H29    H    0.804900    0.804900    0.544800
H30    H    0.304900    0.544800    0.304900
H31    H    0.695100    0.544800    0.695100
H32    H    0.695100    0.455200    0.304900
H33    H    0.304900    0.455200    0.695100
H34    H    0.044800    0.304900    0.804900
H35    H    0.955200    0.695100    0.804900
H36    H    0.955200    0.304900    0.195100
H37    H    0.804900    0.195100    0.544800
H38    H    0.195100    0.195100    0.455200
H39    H    0.804900    0.804900    0.455200
H40    H    0.544800    0.695100    0.304900
H41    H    0.455200    0.695100    0.695100
H42    H    0.455200    0.304900    0.304900
H43    H    0.695100    0.044800    0.804900
H44    H    0.695100    0.955200    0.195100
H45    H    0.695100    0.304900    0.455200
H46    H    0.695100    0.695100    0.544800
H47    H    0.304900    0.304900    0.544800
H48    H    0.804900    0.044800    0.304900
H49    H    0.804900    0.955200    0.695100
H50    H    0.544800    0.195100    0.195100
H51    H    0.544800    0.804900    0.804900
H52    H    0.455200    0.804900    0.195100
H53    H    0.195100    0.304900    0.044800
H54    H    0.195100    0.695100    0.955200
H55    H    0.804900    0.304900    0.955200
H56    H    0.544800    0.804900    0.195100
H57    H    0.455200    0.195100    0.195100
H58    H    0.455200    0.804900    0.804900
H59    H    0.695100    0.544800    0.304900
H60    H    0.304900    0.544800    0.695100
H61    H    0.695100    0.455200    0.695100
H62    H    0.304900    0.455200    0.304900
H63    H    0.304900    0.195100    0.955200
H64    H    0.695100    0.195100    0.044800
H65    H    0.304900    0.804900    0.044800
H66    H    0.804900    0.544800    0.804900
H67    H    0.195100    0.544800    0.195100
H68    H    0.195100    0.455200    0.804900
H69    H    0.804900    0.455200    0.195100
H70    H    0.544800    0.695100    0.695100
H71    H    0.544800    0.304900    0.304900
H72    H    0.455200    0.695100    0.304900
C157    C    0.569952    0.119259    0.891840
C158    C    0.473387    0.282465    0.717613
C159    C    0.473599    0.216754    0.783824
C160    C    0.527157    0.282315    0.717407
C161    C    0.528524    0.215637    0.784827
N1    N    0.555606    0.179875    0.818109
C162    C    0.537064    0.157064    0.862241
C163    C    0.446019    0.249782    0.750743
C164    C    0.555988    0.249649    0.750391
H73    H    0.546276    0.308704    0.691025
H74    H    0.453202    0.308384    0.691555
H75    H    0.451048    0.191209    0.807715
H76    H    0.592563    0.169668    0.808190
O105    O    0.494435    0.167498    0.879703
H77    H    0.608068    0.112996    0.872997
H78    H    0.576725    0.134144    0.931588
H79    H    0.549656    0.081454    0.894285
C165    C    0.619259    0.891840    0.930048
C166    C    0.782465    0.717613    0.026613
C167    C    0.716754    0.783824    0.026401
C168    C    0.782315    0.717407    0.972843
C169    C    0.715637    0.784827    0.971476
N2    N    0.679875    0.818109    0.944394
C170    C    0.657064    0.862241    0.962936
C171    C    0.749782    0.750743    0.053981
C172    C    0.749649    0.750391    0.944012
H80    H    0.808704    0.691025    0.953724
H81    H    0.808384    0.691555    0.046798
H82    H    0.691209    0.807715    0.048952
H83    H    0.669668    0.808190    0.907437
O106    O    0.667498    0.879703    0.005565
H84    H    0.612996    0.872997    0.891932
H85    H    0.634144    0.931588    0.923275
H86    H    0.581454    0.894285    0.950344
C173    C    0.119259    0.069952    0.391840
C174    C    0.282465    0.973387    0.217613
C175    C    0.216754    0.973599    0.283824
C176    C    0.282315    0.027157    0.217407
C177    C    0.215637    0.028524    0.284827
N3    N    0.179875    0.055606    0.318109
C178    C    0.157064    0.037064    0.362241
C179    C    0.249782    0.946019    0.250743
C180    C    0.249649    0.055988    0.250391
H87    H    0.308704    0.046276    0.191025
H88    H    0.308384    0.953202    0.191555
H89    H    0.191209    0.951048    0.307715
H90    H    0.169668    0.092563    0.308190
O107    O    0.167498    0.994435    0.379703
H91    H    0.112996    0.108068    0.372997
H92    H    0.134144    0.076725    0.431588
H93    H    0.081454    0.049656    0.394285
C181    C    0.119259    0.069952    0.608160
C182    C    0.282465    0.973387    0.782387
C183    C    0.216754    0.973599    0.716176
C184    C    0.282315    0.027157    0.782593
C185    C    0.215637    0.028524    0.715173
N4    N    0.179875    0.055606    0.681891
C186    C    0.157064    0.037064    0.637759
C187    C    0.249782    0.946019    0.749257
C188    C    0.249649    0.055988    0.749609
H94    H    0.308704    0.046276    0.808975
H95    H    0.308384    0.953202    0.808445
H96    H    0.191209    0.951048    0.692285
H97    H    0.169668    0.092563    0.691810
O108    O    0.167498    0.994435    0.620297
H98    H    0.112996    0.108068    0.627003
H99    H    0.134144    0.076725    0.568412
H100    H    0.081454    0.049656    0.605715
C189    C    0.119259    0.891840    0.569952
C190    C    0.282465    0.717613    0.473387
C191    C    0.216754    0.783824    0.473599
C192    C    0.282315    0.717407    0.527157
C193    C    0.215637    0.784827    0.528524
N5    N    0.179875    0.818109    0.555606
C194    C    0.157064    0.862241    0.537064
C195    C    0.249782    0.750743    0.446019
C196    C    0.249649    0.750391    0.555988
H101    H    0.308704    0.691025    0.546276
H102    H    0.308384    0.691555    0.453202
H103    H    0.191209    0.807715    0.451048
H104    H    0.169668    0.808190    0.592563
O109    O    0.167498    0.879703    0.494435
H105    H    0.112996    0.872997    0.608068
H106    H    0.134144    0.931588    0.576725
H107    H    0.081454    0.894285    0.549656
C197    C    0.069952    0.608160    0.119259
C198    C    0.973387    0.782387    0.282465
C199    C    0.973599    0.716176    0.216754
C200    C    0.027157    0.782593    0.282315
C201    C    0.028524    0.715173    0.215637
N6    N    0.055606    0.681891    0.179875
C202    C    0.037064    0.637759    0.157064
C203    C    0.946019    0.749257    0.249782
C204    C    0.055988    0.749609    0.249649
H108    H    0.046276    0.808975    0.308704
H109    H    0.953202    0.808445    0.308384
H110    H    0.951048    0.692285    0.191209
H111    H    0.092563    0.691810    0.169668
O110    O    0.994435    0.620297    0.167498
H112    H    0.108068    0.627003    0.112996
H113    H    0.076725    0.568412    0.134144
H114    H    0.049656    0.605715    0.081454

loop_
_geom_bond_atom_site_label_1
_geom_bond_atom_site_label_2
_geom_bond_distance
Zn1    O1    0.07514
Zn1    O9    0.07442
Zn1    O66    0.07442
Zn1    O87    0.07442
Zn2    O2    0.07514
Zn2    O10    0.07442
Zn2    O67    0.07442
Zn2    O85    0.07442
Zn3    O3    0.07514
Zn3    O11    0.07442
Zn3    O65    0.07442
Zn3    O86    0.07442
Zn4    O4    0.07514
Zn4    O12    0.07442
Zn4    O68    0.07442
Zn4    O88    0.07442
Zn5    O1    0.07514
Zn5    O13    0.07442
Zn5    O43    0.07442
Zn5    O82    0.07442
Zn6    O4    0.07514
Zn6    O14    0.07442
Zn6    O41    0.07442
Zn6    O83    0.07442
Zn7    O2    0.07514
Zn7    O15    0.07442
Zn7    O42    0.07442
Zn7    O81    0.07442
Zn8    O3    0.07514
Zn8    O16    0.07442
Zn8    O44    0.07442
Zn8    O84    0.07442
Zn9    O1    0.07514
Zn9    O17    0.07442
Zn9    O38    0.07442
Zn9    O59    0.07442
Zn10    O3    0.07514
Zn10    O18    0.07442
Zn10    O39    0.07442
Zn10    O57    0.07442
Zn11    O4    0.07514
Zn11    O19    0.07442
Zn11    O37    0.07442
Zn11    O58    0.07442
Zn12    O2    0.07514
Zn12    O20    0.07442
Zn12    O40    0.07442
Zn12    O60    0.07442
Zn13    O5    0.07514
Zn13    O21    0.07442
Zn13    O54    0.07442
Zn13    O99    0.07442
Zn14    O6    0.07514
Zn14    O22    0.07442
Zn14    O55    0.07442
Zn14    O97    0.07442
Zn15    O7    0.07514
Zn15    O23    0.07442
Zn15    O53    0.07442
Zn15    O98    0.07442
Zn16    O8    0.07514
Zn16    O24    0.07442
Zn16    O56    0.07442
Zn16    O100    0.07442
Zn17    O5    0.07514
Zn17    O25    0.07442
Zn17    O79    0.07442
Zn17    O94    0.07442
Zn18    O8    0.07514
Zn18    O26    0.07442
Zn18    O77    0.07442
Zn18    O95    0.07442
Zn19    O6    0.07514
Zn19    O27    0.07442
Zn19    O78    0.07442
Zn19    O93    0.07442
Zn20    O7    0.07514
Zn20    O28    0.07442
Zn20    O80    0.07442
Zn20    O96    0.07442
Zn21    O5    0.07514
Zn21    O29    0.07442
Zn21    O47    0.07442
Zn21    O74    0.07442
Zn22    O7    0.07514
Zn22    O30    0.07442
Zn22    O45    0.07442
Zn22    O75    0.07442
Zn23    O8    0.07514
Zn23    O31    0.07442
Zn23    O46    0.07442
Zn23    O73    0.07442
Zn24    O6    0.07514
Zn24    O32    0.07442
Zn24    O48    0.07442
Zn24    O76    0.07442
Zn25    O4    0.07514
Zn25    O33    0.07442
Zn25    O63    0.07442
Zn25    O90    0.07442
Zn26    O3    0.07514
Zn26    O34    0.07442
Zn26    O61    0.07442
Zn26    O91    0.07442
Zn27    O2    0.07514
Zn27    O35    0.07442
Zn27    O62    0.07442
Zn27    O89    0.07442
Zn28    O1    0.07514
Zn28    O36    0.07442
Zn28    O64    0.07442
Zn28    O92    0.07442
Zn29    O7    0.07514
Zn29    O49    0.07442
Zn29    O70    0.07442
Zn29    O103    0.07442
Zn30    O6    0.07514
Zn30    O50    0.07442
Zn30    O71    0.07442
Zn30    O101    0.07442
Zn31    O8    0.07514
Zn31    O51    0.07442
Zn31    O69    0.07442
Zn31    O102    0.07442
Zn32    O5    0.07514
Zn32    O52    0.07442
Zn32    O72    0.07442
Zn32    O104    0.07442
O9    C1    0.05046
O10    C2    0.05046
O11    C3    0.05046
O12    C4    0.05046
O13    C5    0.05046
O14    C6    0.05046
O15    C7    0.05046
O16    C8    0.05046
O17    C9    0.05046
O18    C10    0.05046
O19    C11    0.05046
O20    C12    0.05046
O21    C13    0.05046
O22    C14    0.05046
O23    C15    0.05046
O24    C16    0.05046
O25    C17    0.05046
O26    C18    0.05046
O27    C19    0.05046
O28    C20    0.05046
O29    C21    0.05046
O30    C22    0.05046
O31    C23    0.05046
O32    C24    0.05046
O33    C25    0.05046
O34    C26    0.05046
O35    C27    0.05046
O36    C28    0.05046
O37    C6    0.05046
O38    C5    0.05046
O39    C8    0.05046
O40    C7    0.05046
O41    C29    0.05046
O42    C30    0.05046
O43    C31    0.05046
O44    C32    0.05046
O45    C33    0.05046
O46    C34    0.05046
O47    C35    0.05046
O48    C36    0.05046
O49    C37    0.05046
O50    C38    0.05046
O51    C39    0.05046
O52    C40    0.05046
O53    C22    0.05046
O54    C21    0.05046
O55    C24    0.05046
O56    C23    0.05046
O57    C26    0.05046
O58    C25    0.05046
O59    C28    0.05046
O60    C27    0.05046
O61    C41    0.05046
O62    C42    0.05046
O63    C43    0.05046
O64    C44    0.05046
O65    C10    0.05046
O66    C9    0.05046
O67    C12    0.05046
O68    C11    0.05046
O69    C34    0.05046
O70    C33    0.05046
O71    C36    0.05046
O72    C35    0.05046
O73    C18    0.05046
O74    C17    0.05046
O75    C20    0.05046
O76    C19    0.05046
O77    C45    0.05046
O78    C46    0.05046
O79    C47    0.05046
O80    C48    0.05046
O81    C2    0.05046
O82    C1    0.05046
O83    C4    0.05046
O84    C3    0.05046
O85    C42    0.05046
O86    C41    0.05046
O87    C44    0.05046
O88    C43    0.05046
O89    C30    0.05046
O90    C29    0.05046
O91    C32    0.05046
O92    C31    0.05046
O93    C14    0.05046
O94    C13    0.05046
O95    C16    0.05046
O96    C15    0.05046
O97    C38    0.05046
O98    C37    0.05046
O99    C40    0.05046
O100    C39    0.05046
O101    C46    0.05046
O102    C45    0.05046
O103    C48    0.05046
O104    C47    0.05046
C1    C49    0.05750
C2    C171    0.05732
C3    C50    0.05750
C4    C51    0.05750
C5    C52    0.05750
C6    C53    0.05750
C7    C203    0.05732
C8    C54    0.05750
C9    C180    0.05531
C10    C55    0.05750
C11    C187    0.05732
C12    C56    0.05750
C13    C57    0.05750
C14    C172    0.05531
C15    C58    0.05750
C16    C59    0.05750
C17    C188    0.05531
C18    C60    0.05750
C19    C61    0.05750
C20    C179    0.05732
C21    C62    0.05750
C22    C204    0.05531
C23    C63    0.05750
C24    C64    0.05750
C25    C196    0.05531
C26    C65    0.05750
C27    C66    0.05750
C28    C67    0.05750
C29    C68    0.05750
C30    C69    0.05750
C31    C70    0.05750
C32    C71    0.05750
C33    C195    0.05732
C34    C72    0.05750
C35    C73    0.05750
C36    C74    0.05750
C37    C75    0.05750
C38    C76    0.05750
C39    C77    0.05750
C40    C78    0.05750
C41    C164    0.05531
C42    C79    0.05750
C43    C80    0.05750
C44    C81    0.05750
C45    C82    0.05750
C46    C83    0.05750
C47    C163    0.05732
C48    C84    0.05750
C49    C85    0.05374
C49    C137    0.05374
C50    C86    0.05374
C50    C139    0.05374
C51    C87    0.05374
C51    C138    0.05374
C52    C88    0.05374
C52    C105    0.05374
C53    C89    0.05374
C53    C104    0.05374
C54    C90    0.05374
C54    C106    0.05374
C55    C91    0.05374
C55    C127    0.05374
C56    C92    0.05374
C56    C128    0.05374
C57    C93    0.05374
C57    C147    0.05374
C58    C94    0.05374
C58    C149    0.05374
C59    C95    0.05374
C59    C148    0.05374
C60    C96    0.05374
C60    C132    0.05374
C61    C97    0.05374
C61    C133    0.05374
C62    C98    0.05374
C62    C118    0.05374
C63    C99    0.05374
C63    C120    0.05374
C64    C100    0.05374
C64    C119    0.05374
C65    C101    0.05374
C65    C121    0.05374
C66    C102    0.05374
C66    C123    0.05374
C67    C103    0.05374
C67    C122    0.05374
C68    C107    0.05374
C68    C144    0.05374
C69    C108    0.05374
C69    C143    0.05374
C70    C109    0.05374
C70    C146    0.05374
C71    C110    0.05374
C71    C145    0.05374
C72    C111    0.05374
C72    C129    0.05374
C73    C112    0.05374
C73    C131    0.05374
C74    C113    0.05374
C74    C130    0.05374
C75    C114    0.05374
C75    C151    0.05374
C76    C115    0.05374
C76    C150    0.05374
C77    C116    0.05374
C77    C153    0.05374
C78    C117    0.05374
C78    C152    0.05374
C79    C124    0.05374
C79    C140    0.05374
C80    C125    0.05374
C80    C142    0.05374
C81    C126    0.05374
C81    C141    0.05374
C82    C134    0.05374
C82    C155    0.05374
C83    C135    0.05374
C83    C154    0.05374
C84    C136    0.05374
C84    C156    0.05374
C85    C147    0.05380
C85    H1    0.03589
C86    C148    0.05380
C86    H2    0.03589
C87    C149    0.05380
C87    H3    0.03589
C88    C120    0.05380
C88    H4    0.03589
C89    C119    0.05380
C89    H5    0.03589
C90    C118    0.05380
C90    H6    0.03589
C91    C133    0.05380
C91    H7    0.03589
C92    C132    0.05380
C92    H8    0.03589
C93    C137    0.05380
C93    H9    0.03589
C94    C138    0.05380
C94    H10    0.03589
C95    C139    0.05380
C95    H11    0.03589
C96    C128    0.05380
C96    H12    0.03589
C97    C127    0.05380
C97    H13    0.03589
C98    C106    0.05380
C98    H14    0.03589
C99    C105    0.05380
C99    H15    0.03589
C100    C104    0.05380
C100    H16    0.03589
C101    C129    0.05380
C101    H17    0.03589
C102    C130    0.05380
C102    H18    0.03589
C103    C131    0.05380
C103    H19    0.03589
C104    H20    0.03589
C105    H21    0.03589
C106    H22    0.03589
C107    C152    0.05380
C107    H23    0.03589
C108    C153    0.05380
C108    H24    0.03589
C109    C151    0.05380
C109    H25    0.03589
C110    C150    0.05380
C110    H26    0.03589
C111    C121    0.05380
C111    H27    0.03589
C112    C122    0.05380
C112    H28    0.03589
C113    C123    0.05380
C113    H29    0.03589
C114    C146    0.05380
C114    H30    0.03589
C115    C145    0.05380
C115    H31    0.03589
C116    C143    0.05380
C116    H32    0.03589
C117    C144    0.05380
C117    H33    0.03589
C118    H34    0.03589
C119    H35    0.03589
C120    H36    0.03589
C121    H37    0.03589
C122    H38    0.03589
C123    H39    0.03589
C124    C156    0.05380
C124    H40    0.03589
C125    C154    0.05380
C125    H41    0.03589
C126    C155    0.05380
C126    H42    0.03589
C127    H43    0.03589
C128    H44    0.03589
C129    H45    0.03589
C130    H46    0.03589
C131    H47    0.03589
C132    H48    0.03589
C133    H49    0.03589
C134    C141    0.05380
C134    H50    0.03589
C135    C142    0.05380
C135    H51    0.03589
C136    C140    0.05380
C136    H52    0.03589
C137    H53    0.03589
C138    H54    0.03589
C139    H55    0.03589
C140    H56    0.03589
C141    H57    0.03589
C142    H58    0.03589
C143    H59    0.03589
C144    H60    0.03589
C145    H61    0.03589
C146    H62    0.03589
C147    H63    0.03589
C148    H64    0.03589
C149    H65    0.03589
C150    H66    0.03589
C151    H67    0.03589
C152    H68    0.03589
C153    H69    0.03589
C154    H70    0.03589
C155    H71    0.03589
C156    H72    0.03589
C157    C162    0.05820
C157    H77    0.04298
C157    H78    0.04298
C157    H79    0.04298
C158    C160    0.05377
C158    C163    0.05399
C158    H74    0.04193
C159    C161    0.05495
C159    C163    0.05427
C159    H75    0.04162
C160    C164    0.05465
C160    H73    0.04193
C161    N1    0.05586
C161    C164    0.05565
N1    C162    0.05303
N1    H76    0.03960
C162    O105    0.04723
C165    C170    0.05820
C165    H84    0.04298
C165    H85    0.04298
C165    H86    0.04298
C166    C168    0.05377
C166    C171    0.05399
C166    H81    0.04193
C167    C169    0.05495
C167    C171    0.05427
C167    H82    0.04162
C168    C172    0.05465
C168    H80    0.04193
C169    N2    0.05586
C169    C172    0.05565
N2    C170    0.05303
N2    H83    0.03960
C170    O106    0.04723
C173    C178    0.05820
C173    H91    0.04298
C173    H92    0.04298
C173    H93    0.04298
C174    C176    0.05377
C174    C179    0.05399
C174    H88    0.04193
C175    C177    0.05495
C175    C179    0.05427
C175    H89    0.04162
C176    C180    0.05465
C176    H87    0.04193
C177    N3    0.05586
C177    C180    0.05565
N3    C178    0.05303
N3    H90    0.03960
C178    O107    0.04723
C181    C186    0.05820
C181    H98    0.04298
C181    H99    0.04298
C181    H100    0.04298
C182    C184    0.05377
C182    C187    0.05399
C182    H95    0.04193
C183    C185    0.05495
C183    C187    0.05427
C183    H96    0.04162
C184    C188    0.05465
C184    H94    0.04193
C185    N4    0.05586
C185    C188    0.05565
N4    C186    0.05303
N4    H97    0.03960
C186    O108    0.04723
C189    C194    0.05820
C189    H105    0.04298
C189    H106    0.04298
C189    H107    0.04298
C190    C192    0.05377
C190    C195    0.05399
C190    H102    0.04193
C191    C193    0.05495
C191    C195    0.05427
C191    H103    0.04162
C192    C196    0.05465
C192    H101    0.04193
C193    N5    0.05586
C193    C196    0.05565
N5    C194    0.05303
N5    H104    0.03960
C194    O109    0.04723
C197    C202    0.05820
C197    H112    0.04298
C197    H113    0.04298
C197    H114    0.04298
C198    C200    0.05377
C198    C203    0.05399
C198    H109    0.04193
C199    C201    0.05495
C199    C203    0.05427
C199    H110    0.04162
C200    C204    0.05465
C200    H108    0.04193
C201    N6    0.05586
C201    C204    0.05565
N6    C202    0.05303
N6    H111    0.03960
C202    O110    0.04723
