data_new_xtal_PM
_symmetry_space_group_name_H-M    'P1'
_cell_length_a    29.634800
_cell_length_b    29.634800
_cell_length_c    29.634800
_cell_angle_alpha    60.000000
_cell_angle_beta    60.000000
_cell_angle_gamma    60.000000
_symmetry_Int_Tables_number 1

loop_
_symmetry_equiv_pos_as_xyz
'x,y,z'

loop_
_atom_site_label
_atom_site_type_symbol
_atom_site_fract_x
_atom_site_fract_y
_atom_site_fract_z
O1    O    0.363450    0.462250    0.136550
C1    C    0.038750    0.276150    0.461250
O2    O    0.462250    0.363450    0.037750
H1    H    0.072065    0.295385    0.427935
C2    C    0.223850    0.461250    0.276150
H2    H    0.204615    0.427935    0.295385
C3    C    0.461250    0.223850    0.038750
O3    O    0.037750    0.136550    0.462250
H3    H    0.427935    0.204615    0.072065
C4    C    0.461250    0.038750    0.276150
O4    O    0.037750    0.462250    0.363450
H4    H    0.427935    0.072065    0.295385
C5    C    0.038750    0.461250    0.223850
O5    O    0.462250    0.037750    0.136550
H5    H    0.072065    0.427935    0.204615
C6    C    0.038750    0.223850    0.276150
O6    O    0.462250    0.136550    0.363450
H6    H    0.072065    0.204615    0.295385
C7    C    0.276150    0.461250    0.038750
O7    O    0.363450    0.037750    0.462250
H7    H    0.295385    0.427935    0.072065
C8    C    0.461250    0.276150    0.223850
O8    O    0.037750    0.363450    0.136550
H8    H    0.427935    0.295385    0.204615
C9    C    0.223850    0.038750    0.461250
O9    O    0.136550    0.462250    0.037750
H9    H    0.204615    0.072065    0.427935
C10    C    0.038750    0.276150    0.223850
O10    O    0.462250    0.363450    0.136550
H10    H    0.072065    0.295385    0.204615
C11    C    0.276150    0.038750    0.461250
O11    O    0.363450    0.462250    0.037750
H11    H    0.295385    0.072065    0.427935
C12    C    0.461250    0.223850    0.276150
O12    O    0.037750    0.136550    0.363450
H12    H    0.427935    0.204615    0.295385
C13    C    0.223850    0.461250    0.038750
O13    O    0.136550    0.037750    0.462250
H13    H    0.204615    0.427935    0.072065
C14    C    0.038750    0.461250    0.276150
O14    O    0.462250    0.037750    0.363450
H14    H    0.072065    0.427935    0.295385
C15    C    0.461250    0.038750    0.223850
O15    O    0.037750    0.462250    0.136550
H15    H    0.427935    0.072065    0.204615
O16    O    0.136550    0.462250    0.363450
C16    C    0.461250    0.276150    0.038750
O17    O    0.037750    0.363450    0.462250
H16    H    0.427935    0.295385    0.072065
C17    C    0.276150    0.461250    0.223850
H17    H    0.295385    0.427935    0.204615
C18    C    0.038750    0.223850    0.461250
O18    O    0.462250    0.136550    0.037750
H18    H    0.072065    0.204615    0.427935
Zr1    Zr    0.438150    0.438150    0.061850
Zr2    Zr    0.061850    0.061850    0.438150
Zr3    Zr    0.061850    0.438150    0.438150
Zr4    Zr    0.438150    0.061850    0.061850
Zr5    Zr    0.438150    0.061850    0.438150
Zr6    Zr    0.061850    0.438150    0.061850
C19    C    0.000000    0.343700    0.000000
C20    C    0.000000    0.296700    0.000000
C21    C    0.000000    0.156300    0.000000
C22    C    0.000000    0.203300    0.000000
C23    C    0.000000    0.000000    0.343700
C24    C    0.000000    0.000000    0.296700
C25    C    0.000000    0.000000    0.156300
C26    C    0.000000    0.000000    0.203300
C27    C    0.000000    0.156300    0.343700
C28    C    0.000000    0.203300    0.296700
C29    C    0.343700    0.000000    0.000000
C30    C    0.296700    0.000000    0.000000
C31    C    0.000000    0.343700    0.156300
C32    C    0.000000    0.296700    0.203300
C33    C    0.156300    0.000000    0.000000
C34    C    0.203300    0.000000    0.000000
O19    O    0.393200    0.035600    0.035600
O20    O    0.035600    0.393200    0.035600
O21    O    0.035600    0.035600    0.393200
O22    O    0.035600    0.035600    0.035600
O23    O    0.464400    0.464400    0.106800
H19    H    0.453200    0.453200    0.140395
O24    O    0.464400    0.464400    0.464400
H20    H    0.453200    0.453200    0.453200
O25    O    0.106800    0.464400    0.464400
H21    H    0.140395    0.453200    0.453200
O26    O    0.464400    0.106800    0.464400
H22    H    0.453200    0.140395    0.453200
C35    C    0.276150    0.038750    0.723850
O27    O    0.363450    0.462250    0.636550
H23    H    0.295385    0.072065    0.704615
C36    C    0.038750    0.276150    0.961250
O28    O    0.462250    0.363450    0.537750
H24    H    0.072065    0.295385    0.927935
C37    C    0.223850    0.461250    0.776150
O29    O    0.136550    0.037750    0.863450
H25    H    0.204615    0.427935    0.795385
C38    C    0.461250    0.223850    0.538750
O30    O    0.037750    0.136550    0.962250
H26    H    0.427935    0.204615    0.572065
C39    C    0.461250    0.038750    0.776150
O31    O    0.037750    0.462250    0.863450
H27    H    0.427935    0.072065    0.795385
C40    C    0.038750    0.461250    0.723850
O32    O    0.462250    0.037750    0.636550
H28    H    0.072065    0.427935    0.704615
C41    C    0.038750    0.223850    0.776150
O33    O    0.462250    0.136550    0.863450
H29    H    0.072065    0.204615    0.795385
C42    C    0.276150    0.461250    0.538750
O34    O    0.363450    0.037750    0.962250
H30    H    0.295385    0.427935    0.572065
C43    C    0.461250    0.276150    0.723850
O35    O    0.037750    0.363450    0.636550
H31    H    0.427935    0.295385    0.704615
C44    C    0.223850    0.038750    0.961250
O36    O    0.136550    0.462250    0.537750
H32    H    0.204615    0.072065    0.927935
C45    C    0.038750    0.276150    0.723850
O37    O    0.462250    0.363450    0.636550
H33    H    0.072065    0.295385    0.704615
C46    C    0.276150    0.038750    0.961250
O38    O    0.363450    0.462250    0.537750
H34    H    0.295385    0.072065    0.927935
C47    C    0.461250    0.223850    0.776150
O39    O    0.037750    0.136550    0.863450
H35    H    0.427935    0.204615    0.795385
C48    C    0.223850    0.461250    0.538750
O40    O    0.136550    0.037750    0.962250
H36    H    0.204615    0.427935    0.572065
C49    C    0.038750    0.461250    0.776150
O41    O    0.462250    0.037750    0.863450
H37    H    0.072065    0.427935    0.795385
C50    C    0.461250    0.038750    0.723850
O42    O    0.037750    0.462250    0.636550
H38    H    0.427935    0.072065    0.704615
C51    C    0.223850    0.038750    0.776150
O43    O    0.136550    0.462250    0.863450
H39    H    0.204615    0.072065    0.795385
C52    C    0.461250    0.276150    0.538750
O44    O    0.037750    0.363450    0.962250
H40    H    0.427935    0.295385    0.572065
C53    C    0.276150    0.461250    0.723850
O45    O    0.363450    0.037750    0.636550
H41    H    0.295385    0.427935    0.704615
C54    C    0.038750    0.223850    0.961250
O46    O    0.462250    0.136550    0.537750
H42    H    0.072065    0.204615    0.927935
Zr7    Zr    0.438150    0.438150    0.561850
Zr8    Zr    0.061850    0.061850    0.938150
Zr9    Zr    0.061850    0.438150    0.938150
Zr10    Zr    0.438150    0.061850    0.561850
Zr11    Zr    0.438150    0.061850    0.938150
Zr12    Zr    0.061850    0.438150    0.561850
C55    C    0.343700    0.000000    0.656300
C56    C    0.296700    0.000000    0.703300
C57    C    0.000000    0.343700    0.500000
C58    C    0.000000    0.296700    0.500000
C59    C    0.156300    0.000000    0.843700
C60    C    0.203300    0.000000    0.796700
C61    C    0.000000    0.156300    0.500000
C62    C    0.000000    0.203300    0.500000
C63    C    0.000000    0.000000    0.843700
C64    C    0.000000    0.000000    0.796700
C65    C    0.000000    0.000000    0.656300
C66    C    0.000000    0.000000    0.703300
C67    C    0.000000    0.156300    0.843700
C68    C    0.000000    0.203300    0.796700
C69    C    0.343700    0.000000    0.500000
C70    C    0.296700    0.000000    0.500000
C71    C    0.000000    0.343700    0.656300
C72    C    0.000000    0.296700    0.703300
C73    C    0.156300    0.000000    0.500000
C74    C    0.203300    0.000000    0.500000
O47    O    0.393200    0.035600    0.535600
O48    O    0.035600    0.393200    0.535600
O49    O    0.035600    0.035600    0.893200
O50    O    0.035600    0.035600    0.535600
O51    O    0.464400    0.464400    0.606800
H43    H    0.453200    0.453200    0.640395
O52    O    0.464400    0.464400    0.964400
H44    H    0.453200    0.453200    0.953200
O53    O    0.106800    0.464400    0.964400
H45    H    0.140395    0.453200    0.953200
O54    O    0.464400    0.106800    0.964400
H46    H    0.453200    0.140395    0.953200
C75    C    0.276150    0.538750    0.223850
H47    H    0.295385    0.572065    0.204615
C76    C    0.038750    0.776150    0.461250
O55    O    0.462250    0.863450    0.037750
H48    H    0.072065    0.795385    0.427935
O56    O    0.136550    0.537750    0.363450
C77    C    0.461250    0.723850    0.038750
O57    O    0.037750    0.636550    0.462250
H49    H    0.427935    0.704615    0.072065
C78    C    0.223850    0.776150    0.038750
O58    O    0.136550    0.863450    0.462250
H50    H    0.204615    0.795385    0.072065
C79    C    0.461250    0.538750    0.276150
O59    O    0.037750    0.962250    0.363450
H51    H    0.427935    0.572065    0.295385
C80    C    0.276150    0.723850    0.461250
O60    O    0.363450    0.636550    0.037750
H52    H    0.295385    0.704615    0.427935
C81    C    0.038750    0.961250    0.223850
O61    O    0.462250    0.537750    0.136550
H53    H    0.072065    0.927935    0.204615
C82    C    0.038750    0.723850    0.276150
O62    O    0.462250    0.636550    0.363450
H54    H    0.072065    0.704615    0.295385
C83    C    0.276150    0.961250    0.038750
O63    O    0.363450    0.537750    0.462250
H55    H    0.295385    0.927935    0.072065
C84    C    0.461250    0.776150    0.223850
O64    O    0.037750    0.863450    0.136550
H56    H    0.427935    0.795385    0.204615
C85    C    0.223850    0.538750    0.461250
O65    O    0.136550    0.962250    0.037750
H57    H    0.204615    0.572065    0.427935
C86    C    0.038750    0.776150    0.223850
O66    O    0.462250    0.863450    0.136550
H58    H    0.072065    0.795385    0.204615
C87    C    0.276150    0.538750    0.461250
O67    O    0.363450    0.962250    0.037750
H59    H    0.295385    0.572065    0.427935
C88    C    0.461250    0.723850    0.276150
O68    O    0.037750    0.636550    0.363450
H60    H    0.427935    0.704615    0.295385
C89    C    0.223850    0.961250    0.038750
O69    O    0.136550    0.537750    0.462250
H61    H    0.204615    0.927935    0.072065
C90    C    0.276150    0.723850    0.038750
O70    O    0.363450    0.636550    0.462250
H62    H    0.295385    0.704615    0.072065
C91    C    0.038750    0.961250    0.276150
O71    O    0.462250    0.537750    0.363450
H63    H    0.072065    0.927935    0.295385
C92    C    0.223850    0.776150    0.461250
O72    O    0.136550    0.863450    0.037750
H64    H    0.204615    0.795385    0.427935
C93    C    0.461250    0.538750    0.223850
O73    O    0.037750    0.962250    0.136550
H65    H    0.427935    0.572065    0.204615
C94    C    0.223850    0.538750    0.276150
H66    H    0.204615    0.572065    0.295385
C95    C    0.461250    0.776150    0.038750
O74    O    0.037750    0.863450    0.462250
H67    H    0.427935    0.795385    0.072065
O75    O    0.363450    0.537750    0.136550
C96    C    0.038750    0.723850    0.461250
O76    O    0.462250    0.636550    0.037750
H68    H    0.072065    0.704615    0.427935
Zr13    Zr    0.438150    0.938150    0.061850
Zr14    Zr    0.061850    0.561850    0.438150
Zr15    Zr    0.061850    0.938150    0.438150
Zr16    Zr    0.438150    0.561850    0.061850
Zr17    Zr    0.438150    0.561850    0.438150
Zr18    Zr    0.061850    0.938150    0.061850
C97    C    0.343700    0.500000    0.156300
C98    C    0.296700    0.500000    0.203300
C99    C    0.000000    0.843700    0.000000
C100    C    0.000000    0.796700    0.000000
C101    C    0.156300    0.500000    0.343700
C102    C    0.203300    0.500000    0.296700
C103    C    0.000000    0.656300    0.000000
C104    C    0.000000    0.703300    0.000000
C105    C    0.156300    0.843700    0.000000
C106    C    0.203300    0.796700    0.000000
C107    C    0.000000    0.500000    0.343700
C108    C    0.000000    0.500000    0.296700
C109    C    0.343700    0.656300    0.000000
C110    C    0.296700    0.703300    0.000000
C111    C    0.000000    0.500000    0.156300
C112    C    0.000000    0.500000    0.203300
C113    C    0.000000    0.656300    0.343700
C114    C    0.000000    0.703300    0.296700
C115    C    0.343700    0.500000    0.000000
C116    C    0.296700    0.500000    0.000000
C117    C    0.000000    0.843700    0.156300
C118    C    0.000000    0.796700    0.203300
C119    C    0.156300    0.500000    0.000000
C120    C    0.203300    0.500000    0.000000
O77    O    0.393200    0.535600    0.035600
O78    O    0.035600    0.893200    0.035600
O79    O    0.035600    0.535600    0.393200
O80    O    0.035600    0.535600    0.035600
O81    O    0.464400    0.964400    0.106800
H69    H    0.453200    0.953200    0.140395
O82    O    0.464400    0.964400    0.464400
H70    H    0.453200    0.953200    0.453200
O83    O    0.106800    0.964400    0.464400
H71    H    0.140395    0.953200    0.453200
O84    O    0.464400    0.606800    0.464400
H72    H    0.453200    0.640395    0.453200
C121    C    0.276150    0.538750    0.723850
O85    O    0.363450    0.962250    0.636550
H73    H    0.295385    0.572065    0.704615
C122    C    0.038750    0.776150    0.961250
O86    O    0.462250    0.863450    0.537750
H74    H    0.072065    0.795385    0.927935
C123    C    0.223850    0.961250    0.776150
O87    O    0.136550    0.537750    0.863450
H75    H    0.204615    0.927935    0.795385
C124    C    0.461250    0.723850    0.538750
O88    O    0.037750    0.636550    0.962250
H76    H    0.427935    0.704615    0.572065
C125    C    0.223850    0.776150    0.538750
O89    O    0.136550    0.863450    0.962250
H77    H    0.204615    0.795385    0.572065
C126    C    0.461250    0.538750    0.776150
O90    O    0.037750    0.962250    0.863450
H78    H    0.427935    0.572065    0.795385
C127    C    0.276150    0.723850    0.961250
O91    O    0.363450    0.636550    0.537750
H79    H    0.295385    0.704615    0.927935
C128    C    0.038750    0.961250    0.723850
O92    O    0.462250    0.537750    0.636550
H80    H    0.072065    0.927935    0.704615
C129    C    0.038750    0.723850    0.776150
O93    O    0.462250    0.636550    0.863450
H81    H    0.072065    0.704615    0.795385
C130    C    0.276150    0.961250    0.538750
O94    O    0.363450    0.537750    0.962250
H82    H    0.295385    0.927935    0.572065
C131    C    0.461250    0.776150    0.723850
O95    O    0.037750    0.863450    0.636550
H83    H    0.427935    0.795385    0.704615
C132    C    0.223850    0.538750    0.961250
O96    O    0.136550    0.962250    0.537750
H84    H    0.204615    0.572065    0.927935
C133    C    0.038750    0.776150    0.723850
O97    O    0.462250    0.863450    0.636550
H85    H    0.072065    0.795385    0.704615
C134    C    0.276150    0.538750    0.961250
O98    O    0.363450    0.962250    0.537750
H86    H    0.295385    0.572065    0.927935
C135    C    0.461250    0.723850    0.776150
O99    O    0.037750    0.636550    0.863450
H87    H    0.427935    0.704615    0.795385
C136    C    0.223850    0.961250    0.538750
O100    O    0.136550    0.537750    0.962250
H88    H    0.204615    0.927935    0.572065
C137    C    0.276150    0.723850    0.538750
O101    O    0.363450    0.636550    0.962250
H89    H    0.295385    0.704615    0.572065
C138    C    0.038750    0.961250    0.776150
O102    O    0.462250    0.537750    0.863450
H90    H    0.072065    0.927935    0.795385
C139    C    0.223850    0.776150    0.961250
O103    O    0.136550    0.863450    0.537750
H91    H    0.204615    0.795385    0.927935
C140    C    0.461250    0.538750    0.723850
O104    O    0.037750    0.962250    0.636550
H92    H    0.427935    0.572065    0.704615
C141    C    0.223850    0.538750    0.776150
O105    O    0.136550    0.962250    0.863450
H93    H    0.204615    0.572065    0.795385
C142    C    0.461250    0.776150    0.538750
O106    O    0.037750    0.863450    0.962250
H94    H    0.427935    0.795385    0.572065
C143    C    0.276150    0.961250    0.723850
O107    O    0.363450    0.537750    0.636550
H95    H    0.295385    0.927935    0.704615
C144    C    0.038750    0.723850    0.961250
O108    O    0.462250    0.636550    0.537750
H96    H    0.072065    0.704615    0.927935
Zr19    Zr    0.438150    0.938150    0.561850
Zr20    Zr    0.061850    0.561850    0.938150
Zr21    Zr    0.061850    0.938150    0.938150
Zr22    Zr    0.438150    0.561850    0.561850
Zr23    Zr    0.438150    0.561850    0.938150
Zr24    Zr    0.061850    0.938150    0.561850
C145    C    0.343700    0.500000    0.656300
C146    C    0.296700    0.500000    0.703300
C147    C    0.000000    0.843700    0.500000
C148    C    0.000000    0.796700    0.500000
C149    C    0.156300    0.500000    0.843700
C150    C    0.203300    0.500000    0.796700
C151    C    0.000000    0.656300    0.500000
C152    C    0.000000    0.703300    0.500000
C153    C    0.156300    0.843700    0.500000
C154    C    0.203300    0.796700    0.500000
C155    C    0.000000    0.500000    0.843700
C156    C    0.000000    0.500000    0.796700
C157    C    0.343700    0.656300    0.500000
C158    C    0.296700    0.703300    0.500000
C159    C    0.000000    0.500000    0.656300
C160    C    0.000000    0.500000    0.703300
C161    C    0.000000    0.656300    0.843700
C162    C    0.000000    0.703300    0.796700
C163    C    0.343700    0.500000    0.500000
C164    C    0.296700    0.500000    0.500000
C165    C    0.000000    0.843700    0.656300
C166    C    0.000000    0.796700    0.703300
C167    C    0.156300    0.500000    0.500000
C168    C    0.203300    0.500000    0.500000
O109    O    0.393200    0.535600    0.535600
O110    O    0.035600    0.893200    0.535600
O111    O    0.035600    0.535600    0.893200
O112    O    0.035600    0.535600    0.535600
O113    O    0.464400    0.964400    0.606800
H97    H    0.453200    0.953200    0.640395
O114    O    0.464400    0.964400    0.964400
H98    H    0.453200    0.953200    0.953200
O115    O    0.106800    0.964400    0.964400
H99    H    0.140395    0.953200    0.953200
O116    O    0.464400    0.606800    0.964400
H100    H    0.453200    0.640395    0.953200
C169    C    0.776150    0.038750    0.223850
O117    O    0.863450    0.462250    0.136550
H101    H    0.795385    0.072065    0.204615
C170    C    0.538750    0.276150    0.461250
O118    O    0.962250    0.363450    0.037750
H102    H    0.572065    0.295385    0.427935
C171    C    0.723850    0.461250    0.276150
O119    O    0.636550    0.037750    0.363450
H103    H    0.704615    0.427935    0.295385
C172    C    0.961250    0.223850    0.038750
O120    O    0.537750    0.136550    0.462250
H104    H    0.927935    0.204615    0.072065
C173    C    0.723850    0.276150    0.038750
O121    O    0.636550    0.363450    0.462250
H105    H    0.704615    0.295385    0.072065
C174    C    0.961250    0.038750    0.276150
O122    O    0.537750    0.462250    0.363450
H106    H    0.927935    0.072065    0.295385
C175    C    0.776150    0.223850    0.461250
O123    O    0.863450    0.136550    0.037750
H107    H    0.795385    0.204615    0.427935
C176    C    0.538750    0.461250    0.223850
O124    O    0.962250    0.037750    0.136550
H108    H    0.572065    0.427935    0.204615
C177    C    0.538750    0.223850    0.276150
O125    O    0.962250    0.136550    0.363450
H109    H    0.572065    0.204615    0.295385
C178    C    0.776150    0.461250    0.038750
O126    O    0.863450    0.037750    0.462250
H110    H    0.795385    0.427935    0.072065
C179    C    0.961250    0.276150    0.223850
O127    O    0.537750    0.363450    0.136550
H111    H    0.927935    0.295385    0.204615
C180    C    0.723850    0.038750    0.461250
O128    O    0.636550    0.462250    0.037750
H112    H    0.704615    0.072065    0.427935
C181    C    0.538750    0.276150    0.223850
O129    O    0.962250    0.363450    0.136550
H113    H    0.572065    0.295385    0.204615
C182    C    0.776150    0.038750    0.461250
O130    O    0.863450    0.462250    0.037750
H114    H    0.795385    0.072065    0.427935
C183    C    0.961250    0.223850    0.276150
O131    O    0.537750    0.136550    0.363450
H115    H    0.927935    0.204615    0.295385
C184    C    0.723850    0.461250    0.038750
O132    O    0.636550    0.037750    0.462250
H116    H    0.704615    0.427935    0.072065
C185    C    0.776150    0.223850    0.038750
O133    O    0.863450    0.136550    0.462250
H117    H    0.795385    0.204615    0.072065
C186    C    0.538750    0.461250    0.276150
O134    O    0.962250    0.037750    0.363450
H118    H    0.572065    0.427935    0.295385
C187    C    0.723850    0.276150    0.461250
O135    O    0.636550    0.363450    0.037750
H119    H    0.704615    0.295385    0.427935
C188    C    0.961250    0.038750    0.223850
O136    O    0.537750    0.462250    0.136550
H120    H    0.927935    0.072065    0.204615
C189    C    0.723850    0.038750    0.276150
O137    O    0.636550    0.462250    0.363450
H121    H    0.704615    0.072065    0.295385
C190    C    0.961250    0.276150    0.038750
O138    O    0.537750    0.363450    0.462250
H122    H    0.927935    0.295385    0.072065
C191    C    0.776150    0.461250    0.223850
O139    O    0.863450    0.037750    0.136550
H123    H    0.795385    0.427935    0.204615
C192    C    0.538750    0.223850    0.461250
O140    O    0.962250    0.136550    0.037750
H124    H    0.572065    0.204615    0.427935
Zr25    Zr    0.938150    0.438150    0.061850
Zr26    Zr    0.561850    0.061850    0.438150
Zr27    Zr    0.561850    0.438150    0.438150
Zr28    Zr    0.938150    0.061850    0.061850
Zr29    Zr    0.938150    0.061850    0.438150
Zr30    Zr    0.561850    0.438150    0.061850
C193    C    0.843700    0.000000    0.156300
C194    C    0.796700    0.000000    0.203300
C195    C    0.500000    0.343700    0.000000
C196    C    0.500000    0.296700    0.000000
C197    C    0.656300    0.000000    0.343700
C198    C    0.703300    0.000000    0.296700
C199    C    0.500000    0.156300    0.000000
C200    C    0.500000    0.203300    0.000000
C201    C    0.656300    0.343700    0.000000
C202    C    0.703300    0.296700    0.000000
C203    C    0.500000    0.000000    0.343700
C204    C    0.500000    0.000000    0.296700
C205    C    0.843700    0.156300    0.000000
C206    C    0.796700    0.203300    0.000000
C207    C    0.500000    0.000000    0.156300
C208    C    0.500000    0.000000    0.203300
C209    C    0.500000    0.156300    0.343700
C210    C    0.500000    0.203300    0.296700
C211    C    0.843700    0.000000    0.000000
C212    C    0.796700    0.000000    0.000000
C213    C    0.500000    0.343700    0.156300
C214    C    0.500000    0.296700    0.203300
C215    C    0.656300    0.000000    0.000000
C216    C    0.703300    0.000000    0.000000
O141    O    0.893200    0.035600    0.035600
O142    O    0.535600    0.393200    0.035600
O143    O    0.535600    0.035600    0.393200
O144    O    0.535600    0.035600    0.035600
O145    O    0.964400    0.464400    0.106800
H125    H    0.953200    0.453200    0.140395
O146    O    0.964400    0.464400    0.464400
H126    H    0.953200    0.453200    0.453200
O147    O    0.606800    0.464400    0.464400
H127    H    0.640395    0.453200    0.453200
O148    O    0.964400    0.106800    0.464400
H128    H    0.953200    0.140395    0.453200
C217    C    0.776150    0.038750    0.723850
O149    O    0.863450    0.462250    0.636550
H129    H    0.795385    0.072065    0.704615
C218    C    0.538750    0.276150    0.961250
O150    O    0.962250    0.363450    0.537750
H130    H    0.572065    0.295385    0.927935
C219    C    0.723850    0.461250    0.776150
O151    O    0.636550    0.037750    0.863450
H131    H    0.704615    0.427935    0.795385
C220    C    0.961250    0.223850    0.538750
O152    O    0.537750    0.136550    0.962250
H132    H    0.927935    0.204615    0.572065
C221    C    0.723850    0.276150    0.538750
O153    O    0.636550    0.363450    0.962250
H133    H    0.704615    0.295385    0.572065
C222    C    0.961250    0.038750    0.776150
O154    O    0.537750    0.462250    0.863450
H134    H    0.927935    0.072065    0.795385
C223    C    0.776150    0.223850    0.961250
O155    O    0.863450    0.136550    0.537750
H135    H    0.795385    0.204615    0.927935
C224    C    0.538750    0.461250    0.723850
O156    O    0.962250    0.037750    0.636550
H136    H    0.572065    0.427935    0.704615
C225    C    0.538750    0.223850    0.776150
O157    O    0.962250    0.136550    0.863450
H137    H    0.572065    0.204615    0.795385
C226    C    0.776150    0.461250    0.538750
O158    O    0.863450    0.037750    0.962250
H138    H    0.795385    0.427935    0.572065
C227    C    0.961250    0.276150    0.723850
O159    O    0.537750    0.363450    0.636550
H139    H    0.927935    0.295385    0.704615
C228    C    0.723850    0.038750    0.961250
O160    O    0.636550    0.462250    0.537750
H140    H    0.704615    0.072065    0.927935
C229    C    0.538750    0.276150    0.723850
O161    O    0.962250    0.363450    0.636550
H141    H    0.572065    0.295385    0.704615
C230    C    0.776150    0.038750    0.961250
O162    O    0.863450    0.462250    0.537750
H142    H    0.795385    0.072065    0.927935
C231    C    0.961250    0.223850    0.776150
O163    O    0.537750    0.136550    0.863450
H143    H    0.927935    0.204615    0.795385
C232    C    0.723850    0.461250    0.538750
O164    O    0.636550    0.037750    0.962250
H144    H    0.704615    0.427935    0.572065
C233    C    0.776150    0.223850    0.538750
O165    O    0.863450    0.136550    0.962250
H145    H    0.795385    0.204615    0.572065
C234    C    0.538750    0.461250    0.776150
O166    O    0.962250    0.037750    0.863450
H146    H    0.572065    0.427935    0.795385
C235    C    0.723850    0.276150    0.961250
O167    O    0.636550    0.363450    0.537750
H147    H    0.704615    0.295385    0.927935
C236    C    0.961250    0.038750    0.723850
O168    O    0.537750    0.462250    0.636550
H148    H    0.927935    0.072065    0.704615
C237    C    0.723850    0.038750    0.776150
O169    O    0.636550    0.462250    0.863450
H149    H    0.704615    0.072065    0.795385
C238    C    0.961250    0.276150    0.538750
O170    O    0.537750    0.363450    0.962250
H150    H    0.927935    0.295385    0.572065
C239    C    0.776150    0.461250    0.723850
O171    O    0.863450    0.037750    0.636550
H151    H    0.795385    0.427935    0.704615
C240    C    0.538750    0.223850    0.961250
O172    O    0.962250    0.136550    0.537750
H152    H    0.572065    0.204615    0.927935
Zr31    Zr    0.938150    0.438150    0.561850
Zr32    Zr    0.561850    0.061850    0.938150
Zr33    Zr    0.561850    0.438150    0.938150
Zr34    Zr    0.938150    0.061850    0.561850
Zr35    Zr    0.938150    0.061850    0.938150
Zr36    Zr    0.561850    0.438150    0.561850
C241    C    0.843700    0.000000    0.656300
C242    C    0.796700    0.000000    0.703300
C243    C    0.500000    0.343700    0.500000
C244    C    0.500000    0.296700    0.500000
C245    C    0.656300    0.000000    0.843700
C246    C    0.703300    0.000000    0.796700
C247    C    0.500000    0.156300    0.500000
C248    C    0.500000    0.203300    0.500000
C249    C    0.656300    0.343700    0.500000
C250    C    0.703300    0.296700    0.500000
C251    C    0.500000    0.000000    0.843700
C252    C    0.500000    0.000000    0.796700
C253    C    0.843700    0.156300    0.500000
C254    C    0.796700    0.203300    0.500000
C255    C    0.500000    0.000000    0.656300
C256    C    0.500000    0.000000    0.703300
C257    C    0.500000    0.156300    0.843700
C258    C    0.500000    0.203300    0.796700
C259    C    0.843700    0.000000    0.500000
C260    C    0.796700    0.000000    0.500000
C261    C    0.500000    0.343700    0.656300
C262    C    0.500000    0.296700    0.703300
C263    C    0.656300    0.000000    0.500000
C264    C    0.703300    0.000000    0.500000
O173    O    0.893200    0.035600    0.535600
O174    O    0.535600    0.393200    0.535600
O175    O    0.535600    0.035600    0.893200
O176    O    0.535600    0.035600    0.535600
O177    O    0.964400    0.464400    0.606800
H153    H    0.953200    0.453200    0.640395
O178    O    0.964400    0.464400    0.964400
H154    H    0.953200    0.453200    0.953200
O179    O    0.606800    0.464400    0.964400
H155    H    0.640395    0.453200    0.953200
O180    O    0.964400    0.106800    0.964400
H156    H    0.953200    0.140395    0.953200
C265    C    0.776150    0.538750    0.223850
O181    O    0.863450    0.962250    0.136550
H157    H    0.795385    0.572065    0.204615
C266    C    0.538750    0.776150    0.461250
O182    O    0.962250    0.863450    0.037750
H158    H    0.572065    0.795385    0.427935
C267    C    0.723850    0.961250    0.276150
O183    O    0.636550    0.537750    0.363450
H159    H    0.704615    0.927935    0.295385
C268    C    0.961250    0.723850    0.038750
O184    O    0.537750    0.636550    0.462250
H160    H    0.927935    0.704615    0.072065
C269    C    0.723850    0.776150    0.038750
O185    O    0.636550    0.863450    0.462250
H161    H    0.704615    0.795385    0.072065
C270    C    0.961250    0.538750    0.276150
O186    O    0.537750    0.962250    0.363450
H162    H    0.927935    0.572065    0.295385
C271    C    0.776150    0.723850    0.461250
O187    O    0.863450    0.636550    0.037750
H163    H    0.795385    0.704615    0.427935
C272    C    0.538750    0.961250    0.223850
O188    O    0.962250    0.537750    0.136550
H164    H    0.572065    0.927935    0.204615
C273    C    0.538750    0.723850    0.276150
O189    O    0.962250    0.636550    0.363450
H165    H    0.572065    0.704615    0.295385
C274    C    0.776150    0.961250    0.038750
O190    O    0.863450    0.537750    0.462250
H166    H    0.795385    0.927935    0.072065
C275    C    0.961250    0.776150    0.223850
O191    O    0.537750    0.863450    0.136550
H167    H    0.927935    0.795385    0.204615
C276    C    0.723850    0.538750    0.461250
O192    O    0.636550    0.962250    0.037750
H168    H    0.704615    0.572065    0.427935
C277    C    0.538750    0.776150    0.223850
O193    O    0.962250    0.863450    0.136550
H169    H    0.572065    0.795385    0.204615
C278    C    0.776150    0.538750    0.461250
O194    O    0.863450    0.962250    0.037750
H170    H    0.795385    0.572065    0.427935
C279    C    0.961250    0.723850    0.276150
O195    O    0.537750    0.636550    0.363450
H171    H    0.927935    0.704615    0.295385
C280    C    0.723850    0.961250    0.038750
O196    O    0.636550    0.537750    0.462250
H172    H    0.704615    0.927935    0.072065
C281    C    0.776150    0.723850    0.038750
O197    O    0.863450    0.636550    0.462250
H173    H    0.795385    0.704615    0.072065
C282    C    0.538750    0.961250    0.276150
O198    O    0.962250    0.537750    0.363450
H174    H    0.572065    0.927935    0.295385
C283    C    0.723850    0.776150    0.461250
O199    O    0.636550    0.863450    0.037750
H175    H    0.704615    0.795385    0.427935
C284    C    0.961250    0.538750    0.223850
O200    O    0.537750    0.962250    0.136550
H176    H    0.927935    0.572065    0.204615
C285    C    0.723850    0.538750    0.276150
O201    O    0.636550    0.962250    0.363450
H177    H    0.704615    0.572065    0.295385
C286    C    0.961250    0.776150    0.038750
O202    O    0.537750    0.863450    0.462250
H178    H    0.927935    0.795385    0.072065
C287    C    0.776150    0.961250    0.223850
O203    O    0.863450    0.537750    0.136550
H179    H    0.795385    0.927935    0.204615
C288    C    0.538750    0.723850    0.461250
O204    O    0.962250    0.636550    0.037750
H180    H    0.572065    0.704615    0.427935
Zr37    Zr    0.938150    0.938150    0.061850
Zr38    Zr    0.561850    0.561850    0.438150
Zr39    Zr    0.561850    0.938150    0.438150
Zr40    Zr    0.938150    0.561850    0.061850
Zr41    Zr    0.938150    0.561850    0.438150
Zr42    Zr    0.561850    0.938150    0.061850
C289    C    0.843700    0.500000    0.156300
C290    C    0.796700    0.500000    0.203300
C291    C    0.500000    0.843700    0.000000
C292    C    0.500000    0.796700    0.000000
C293    C    0.656300    0.500000    0.343700
C294    C    0.703300    0.500000    0.296700
C295    C    0.500000    0.656300    0.000000
C296    C    0.500000    0.703300    0.000000
C297    C    0.656300    0.843700    0.000000
C298    C    0.703300    0.796700    0.000000
C299    C    0.500000    0.500000    0.343700
C300    C    0.500000    0.500000    0.296700
C301    C    0.843700    0.656300    0.000000
C302    C    0.796700    0.703300    0.000000
C303    C    0.500000    0.500000    0.156300
C304    C    0.500000    0.500000    0.203300
C305    C    0.500000    0.656300    0.343700
C306    C    0.500000    0.703300    0.296700
C307    C    0.843700    0.500000    0.000000
C308    C    0.796700    0.500000    0.000000
C309    C    0.500000    0.843700    0.156300
C310    C    0.500000    0.796700    0.203300
C311    C    0.656300    0.500000    0.000000
C312    C    0.703300    0.500000    0.000000
O205    O    0.893200    0.535600    0.035600
O206    O    0.535600    0.893200    0.035600
O207    O    0.535600    0.535600    0.393200
O208    O    0.535600    0.535600    0.035600
O209    O    0.964400    0.964400    0.106800
H181    H    0.953200    0.953200    0.140395
O210    O    0.964400    0.964400    0.464400
H182    H    0.953200    0.953200    0.453200
O211    O    0.606800    0.964400    0.464400
H183    H    0.640395    0.953200    0.453200
O212    O    0.964400    0.606800    0.464400
H184    H    0.953200    0.640395    0.453200
C313    C    0.776150    0.538750    0.723850
O213    O    0.863450    0.962250    0.636550
H185    H    0.795385    0.572065    0.704615
C314    C    0.538750    0.776150    0.961250
O214    O    0.962250    0.863450    0.537750
H186    H    0.572065    0.795385    0.927935
C315    C    0.723850    0.961250    0.776150
O215    O    0.636550    0.537750    0.863450
H187    H    0.704615    0.927935    0.795385
C316    C    0.961250    0.723850    0.538750
O216    O    0.537750    0.636550    0.962250
H188    H    0.927935    0.704615    0.572065
C317    C    0.723850    0.776150    0.538750
O217    O    0.636550    0.863450    0.962250
H189    H    0.704615    0.795385    0.572065
C318    C    0.961250    0.538750    0.776150
O218    O    0.537750    0.962250    0.863450
H190    H    0.927935    0.572065    0.795385
C319    C    0.776150    0.723850    0.961250
O219    O    0.863450    0.636550    0.537750
H191    H    0.795385    0.704615    0.927935
C320    C    0.538750    0.961250    0.723850
O220    O    0.962250    0.537750    0.636550
H192    H    0.572065    0.927935    0.704615
C321    C    0.538750    0.723850    0.776150
O221    O    0.962250    0.636550    0.863450
H193    H    0.572065    0.704615    0.795385
C322    C    0.776150    0.961250    0.538750
O222    O    0.863450    0.537750    0.962250
H194    H    0.795385    0.927935    0.572065
C323    C    0.961250    0.776150    0.723850
O223    O    0.537750    0.863450    0.636550
H195    H    0.927935    0.795385    0.704615
C324    C    0.723850    0.538750    0.961250
O224    O    0.636550    0.962250    0.537750
H196    H    0.704615    0.572065    0.927935
C325    C    0.538750    0.776150    0.723850
O225    O    0.962250    0.863450    0.636550
H197    H    0.572065    0.795385    0.704615
C326    C    0.776150    0.538750    0.961250
O226    O    0.863450    0.962250    0.537750
H198    H    0.795385    0.572065    0.927935
C327    C    0.961250    0.723850    0.776150
O227    O    0.537750    0.636550    0.863450
H199    H    0.927935    0.704615    0.795385
C328    C    0.723850    0.961250    0.538750
O228    O    0.636550    0.537750    0.962250
H200    H    0.704615    0.927935    0.572065
C329    C    0.776150    0.723850    0.538750
O229    O    0.863450    0.636550    0.962250
H201    H    0.795385    0.704615    0.572065
C330    C    0.538750    0.961250    0.776150
O230    O    0.962250    0.537750    0.863450
H202    H    0.572065    0.927935    0.795385
C331    C    0.723850    0.776150    0.961250
O231    O    0.636550    0.863450    0.537750
H203    H    0.704615    0.795385    0.927935
C332    C    0.961250    0.538750    0.723850
O232    O    0.537750    0.962250    0.636550
H204    H    0.927935    0.572065    0.704615
C333    C    0.723850    0.538750    0.776150
O233    O    0.636550    0.962250    0.863450
H205    H    0.704615    0.572065    0.795385
C334    C    0.961250    0.776150    0.538750
O234    O    0.537750    0.863450    0.962250
H206    H    0.927935    0.795385    0.572065
C335    C    0.776150    0.961250    0.723850
O235    O    0.863450    0.537750    0.636550
H207    H    0.795385    0.927935    0.704615
C336    C    0.538750    0.723850    0.961250
O236    O    0.962250    0.636550    0.537750
H208    H    0.572065    0.704615    0.927935
Zr43    Zr    0.938150    0.938150    0.561850
Zr44    Zr    0.561850    0.561850    0.938150
Zr45    Zr    0.561850    0.938150    0.938150
Zr46    Zr    0.938150    0.561850    0.561850
Zr47    Zr    0.938150    0.561850    0.938150
Zr48    Zr    0.561850    0.938150    0.561850
C337    C    0.843700    0.500000    0.656300
C338    C    0.796700    0.500000    0.703300
C339    C    0.500000    0.843700    0.500000
C340    C    0.500000    0.796700    0.500000
C341    C    0.656300    0.500000    0.843700
C342    C    0.703300    0.500000    0.796700
C343    C    0.500000    0.656300    0.500000
C344    C    0.500000    0.703300    0.500000
C345    C    0.656300    0.843700    0.500000
C346    C    0.703300    0.796700    0.500000
C347    C    0.500000    0.500000    0.843700
C348    C    0.500000    0.500000    0.796700
C349    C    0.843700    0.656300    0.500000
C350    C    0.796700    0.703300    0.500000
C351    C    0.500000    0.500000    0.656300
C352    C    0.500000    0.500000    0.703300
C353    C    0.500000    0.656300    0.843700
C354    C    0.500000    0.703300    0.796700
C355    C    0.843700    0.500000    0.500000
C356    C    0.796700    0.500000    0.500000
C357    C    0.500000    0.843700    0.656300
C358    C    0.500000    0.796700    0.703300
C359    C    0.656300    0.500000    0.500000
C360    C    0.703300    0.500000    0.500000
O237    O    0.893200    0.535600    0.535600
O238    O    0.535600    0.893200    0.535600
O239    O    0.535600    0.535600    0.893200
O240    O    0.535600    0.535600    0.535600
O241    O    0.964400    0.964400    0.606800
H209    H    0.953200    0.953200    0.640395
O242    O    0.964400    0.964400    0.964400
H210    H    0.953200    0.953200    0.953200
O243    O    0.606800    0.964400    0.964400
H211    H    0.640395    0.953200    0.953200
O244    O    0.964400    0.606800    0.964400
H212    H    0.953200    0.640395    0.953200
C361    C    0.345228    0.000000    0.154772
C362    C    0.154772    0.000000    0.345228
O245    O    0.376888    0.955220    0.145502
O246    O    0.354498    0.044780    0.123112
O247    O    0.145502    0.955220    0.376888
O248    O    0.123112    0.044780    0.354498
H213    H    0.307247    0.000000    0.192753
H214    H    0.192753    0.000000    0.307247
C363    C    0.154772    0.345228    0.000000
C364    C    0.345228    0.154772    0.000000
O249    O    0.142984    0.374371    0.026366
O250    O    0.125629    0.357016    0.973634
O251    O    0.374371    0.142984    0.026366
O252    O    0.357016    0.125629    0.973634
H215    H    0.192753    0.307247    0.000000
H216    H    0.307247    0.192753    0.000000
C365    C    0.154772    0.345228    0.500000
C366    C    0.345228    0.154772    0.500000
O253    O    0.134307    0.365693    0.537130
O254    O    0.134307    0.365693    0.462870
O255    O    0.365693    0.134307    0.537130
O256    O    0.365693    0.134307    0.462870
H217    H    0.192753    0.307247    0.500000
H218    H    0.307247    0.192753    0.500000

loop_
_geom_bond_atom_site_label_1
_geom_bond_atom_site_label_2
_geom_bond_distance
O1    Zr1    0.10836
O1    C97    0.04696
C1    H1    0.05089
C1    C18    0.05230
C1    C58    0.05853
O2    Zr1    0.08211
O2    C195    0.05692
C2    H2    0.04301
C2    C17    0.07396
C2    C102    0.04844
C3    H3    0.05089
C3    C16    0.05230
C3    C200    0.05853
O3    Zr2    0.08211
O3    C61    0.05692
C4    H4    0.05089
C4    C15    0.05230
C4    C204    0.05853
O4    Zr3    0.08211
O4    C107    0.05692
C5    H5    0.05089
C5    C14    0.05230
C5    C112    0.05853
O5    Zr4    0.08211
O5    C207    0.05692
C6    H6    0.04301
C6    C10    0.07396
C6    C28    0.04844
O6    Zr5    0.10836
O6    C209    0.04696
C7    H7    0.05089
C7    C13    0.05230
C7    C116    0.05853
O7    Zr5    0.08211
O7    C69    0.05692
C8    H8    0.04301
C8    C12    0.07396
C8    C214    0.04844
O8    Zr6    0.10836
O8    C31    0.04696
C9    H9    0.05089
C9    C11    0.05230
C9    C74    0.05853
O9    Zr6    0.08211
O9    C119    0.05692
C10    H10    0.04301
C10    C32    0.04844
O10    Zr1    0.10836
O10    C213    0.04696
C11    H11    0.05089
C11    C70    0.05853
O11    Zr1    0.08211
O11    C115    0.05692
C12    H12    0.04301
C12    C210    0.04844
O12    Zr2    0.10836
O12    C27    0.04696
C13    H13    0.05089
C13    C120    0.05853
O13    Zr2    0.08211
O13    C73    0.05692
C14    H14    0.05089
C14    C108    0.05853
O14    Zr5    0.08211
O14    C203    0.05692
C15    H15    0.05089
C15    C208    0.05853
O15    Zr6    0.08211
O15    C111    0.05692
O16    Zr3    0.10836
O16    C101    0.04696
C16    H16    0.05089
C16    C196    0.05853
O17    Zr3    0.08211
O17    C57    0.05692
C17    H17    0.04301
C17    C98    0.04844
C18    H18    0.05089
C18    C62    0.05853
O18    Zr4    0.08211
O18    C199    0.05692
Zr1    O23    0.05830
Zr1    O52    0.10428
Zr1    O77    0.11048
Zr1    O142    0.11048
Zr2    O21    0.05830
Zr2    O50    0.10428
Zr2    O83    0.11048
Zr2    O148    0.11048
Zr2    O248    0.10508
Zr3    O25    0.05830
Zr3    O48    0.11048
Zr3    O79    0.11048
Zr3    O146    0.10428
Zr3    O254    0.10541
Zr4    O19    0.05830
Zr4    O54    0.11048
Zr4    O81    0.11048
Zr4    O144    0.10428
Zr4    O245    0.14873
Zr4    O251    0.10913
Zr5    O26    0.05830
Zr5    O47    0.11048
Zr5    O82    0.10428
Zr5    O143    0.11048
Zr5    O256    0.10541
Zr6    O20    0.05830
Zr6    O53    0.11048
Zr6    O80    0.10428
Zr6    O145    0.11048
Zr6    O250    0.13577
C19    C20    0.04700
C19    O44    0.05692
C19    O118    0.05692
C20    C36    0.05853
C20    C190    0.05853
C21    C22    0.04700
C21    O30    0.05692
C21    O140    0.05692
C22    C54    0.05853
C22    C172    0.05853
C23    C24    0.04700
C23    O59    0.05692
C23    O134    0.05692
C24    C91    0.05853
C24    C174    0.05853
C25    C26    0.04700
C25    O73    0.05692
C25    O124    0.05692
C26    C81    0.05853
C26    C188    0.05853
C27    C28    0.06647
C27    O125    0.04696
C28    C183    0.04844
C29    C30    0.04700
C29    O34    0.05692
C29    O67    0.05692
C30    C46    0.05853
C30    C83    0.05853
C31    C32    0.06647
C31    O129    0.04696
C32    C179    0.04844
C33    C34    0.04700
C33    O40    0.05692
C33    O65    0.05692
C34    C44    0.05853
C34    C89    0.05853
O19    Zr11    0.11048
O19    Zr13    0.11048
O20    Zr9    0.11048
O20    Zr25    0.11048
O21    Zr15    0.11048
O21    Zr29    0.11048
O22    Zr8    0.10428
O22    Zr18    0.10428
O22    Zr28    0.10428
O23    H19    0.03714
O23    Zr16    0.11048
O23    Zr30    0.11048
O24    H20    0.01940
O24    Zr7    0.10428
O24    Zr17    0.10428
O24    Zr27    0.10428
O25    H21    0.03714
O25    Zr12    0.11048
O25    Zr14    0.11048
O26    H22    0.03714
O26    Zr10    0.11048
O26    Zr26    0.11048
C35    H23    0.04301
C35    C51    0.07396
C35    C56    0.04844
O27    Zr7    0.10836
O27    C145    0.04696
C36    H24    0.05089
C36    C54    0.05230
O28    Zr7    0.08211
O28    C243    0.05692
C37    H25    0.04301
C37    C53    0.07396
C37    C150    0.04844
O29    Zr8    0.10836
O29    C59    0.04696
C38    H26    0.05089
C38    C52    0.05230
C38    C248    0.05853
O30    Zr8    0.08211
C39    H27    0.05089
C39    C50    0.05230
C39    C252    0.05853
O31    Zr9    0.08211
O31    C155    0.05692
C40    H28    0.05089
C40    C49    0.05230
C40    C160    0.05853
O32    Zr10    0.08211
O32    C255    0.05692
C41    H29    0.04301
C41    C45    0.07396
C41    C68    0.04844
O33    Zr11    0.10836
O33    C257    0.04696
C42    H30    0.05089
C42    C48    0.05230
C42    C164    0.05853
O34    Zr11    0.08211
C43    H31    0.04301
C43    C47    0.07396
C43    C262    0.04844
O35    Zr12    0.10836
O35    C71    0.04696
C44    H32    0.05089
C44    C46    0.05230
O36    Zr12    0.08211
O36    C167    0.05692
C45    H33    0.04301
C45    C72    0.04844
O37    Zr7    0.10836
O37    C261    0.04696
C46    H34    0.05089
O38    Zr7    0.08211
O38    C163    0.05692
C47    H35    0.04301
C47    C258    0.04844
O39    Zr8    0.10836
O39    C67    0.04696
C48    H36    0.05089
C48    C168    0.05853
O40    Zr8    0.08211
C49    H37    0.05089
C49    C156    0.05853
O41    Zr11    0.08211
O41    C251    0.05692
C50    H38    0.05089
C50    C256    0.05853
O42    Zr12    0.08211
O42    C159    0.05692
C51    H39    0.04301
C51    C60    0.04844
O43    Zr9    0.10836
O43    C149    0.04696
C52    H40    0.05089
C52    C244    0.05853
O44    Zr9    0.08211
C53    H41    0.04301
C53    C146    0.04844
O45    Zr10    0.10836
O45    C55    0.04696
C54    H42    0.05089
O46    Zr10    0.08211
O46    C247    0.05692
Zr7    O51    0.05830
Zr7    O109    0.11048
Zr7    O174    0.11048
Zr8    O49    0.05830
Zr8    O115    0.11048
Zr8    O180    0.11048
Zr9    O53    0.05830
Zr9    O111    0.11048
Zr9    O178    0.10428
Zr9    O249    0.13577
Zr10    O47    0.05830
Zr10    O113    0.11048
Zr10    O176    0.10428
Zr10    O255    0.10541
Zr11    O54    0.05830
Zr11    O114    0.10428
Zr11    O175    0.11048
Zr11    O252    0.10913
Zr12    O48    0.05830
Zr12    O112    0.10428
Zr12    O177    0.11048
Zr12    O253    0.10541
C55    C56    0.06647
C55    O85    0.04696
C56    C143    0.04844
C57    C58    0.04700
C57    O150    0.05692
C58    C238    0.05853
C59    C60    0.06647
C59    O105    0.04696
C60    C123    0.04844
C61    C62    0.04700
C61    O172    0.05692
C62    C220    0.05853
C63    C64    0.04700
C63    O90    0.05692
C63    O166    0.05692
C64    C138    0.05853
C64    C222    0.05853
C65    C66    0.04700
C65    O104    0.05692
C65    O156    0.05692
C66    C128    0.05853
C66    C236    0.05853
C67    C68    0.06647
C67    O157    0.04696
C68    C231    0.04844
C69    C70    0.04700
C69    O98    0.05692
C70    C130    0.05853
C71    C72    0.06647
C71    O161    0.04696
C72    C227    0.04844
C73    C74    0.04700
C73    O96    0.05692
C74    C136    0.05853
O47    Zr19    0.11048
O48    Zr31    0.11048
O49    Zr21    0.11048
O49    Zr35    0.11048
O50    Zr24    0.10428
O50    Zr34    0.10428
O51    H43    0.03714
O51    Zr22    0.11048
O51    Zr36    0.11048
O52    H44    0.01940
O52    Zr23    0.10428
O52    Zr33    0.10428
O53    H45    0.03714
O53    Zr20    0.11048
O54    H46    0.03714
O54    Zr32    0.11048
C75    H47    0.04301
C75    C94    0.07396
C75    C98    0.04844
C76    H48    0.05089
C76    C96    0.05230
C76    C148    0.05853
O55    Zr13    0.08211
O55    C291    0.05692
O56    Zr14    0.10836
O56    C101    0.04696
C77    H49    0.05089
C77    C95    0.05230
C77    C296    0.05853
O57    Zr14    0.08211
O57    C151    0.05692
C78    H50    0.04301
C78    C90    0.07396
C78    C106    0.04844
O58    Zr15    0.10836
O58    C153    0.04696
C79    H51    0.05089
C79    C93    0.05230
C79    C300    0.05853
O59    Zr15    0.08211
C80    H52    0.04301
C80    C92    0.07396
C80    C158    0.04844
O60    Zr16    0.10836
O60    C109    0.04696
C81    H53    0.05089
C81    C91    0.05230
O61    Zr16    0.08211
O61    C303    0.05692
C82    H54    0.04301
C82    C86    0.07396
C82    C114    0.04844
O62    Zr17    0.10836
O62    C305    0.04696
C83    H55    0.05089
C83    C89    0.05230
O63    Zr17    0.08211
O63    C163    0.05692
C84    H56    0.04301
C84    C88    0.07396
C84    C310    0.04844
O64    Zr18    0.10836
O64    C117    0.04696
C85    H57    0.05089
C85    C87    0.05230
C85    C168    0.05853
O65    Zr18    0.08211
C86    H58    0.04301
C86    C118    0.04844
O66    Zr13    0.10836
O66    C309    0.04696
C87    H59    0.05089
C87    C164    0.05853
O67    Zr13    0.08211
C88    H60    0.04301
C88    C306    0.04844
O68    Zr14    0.10836
O68    C113    0.04696
C89    H61    0.05089
O69    Zr14    0.08211
O69    C167    0.05692
C90    H62    0.04301
C90    C110    0.04844
O70    Zr17    0.10836
O70    C157    0.04696
C91    H63    0.05089
O71    Zr17    0.08211
O71    C299    0.05692
C92    H64    0.04301
C92    C154    0.04844
O72    Zr18    0.10836
O72    C105    0.04696
C93    H65    0.05089
C93    C304    0.05853
O73    Zr18    0.08211
C94    H66    0.04301
C94    C102    0.04844
C95    H67    0.05089
C95    C292    0.05853
O74    Zr15    0.08211
O74    C147    0.05692
O75    Zr16    0.10836
O75    C97    0.04696
C96    H68    0.05089
C96    C152    0.05853
O76    Zr16    0.08211
O76    C295    0.05692
Zr13    O81    0.05830
Zr13    O114    0.10428
Zr13    O206    0.11048
Zr13    O246    0.14873
Zr14    O79    0.05830
Zr14    O112    0.10428
Zr14    O212    0.11048
Zr15    O83    0.05830
Zr15    O110    0.11048
Zr15    O210    0.10428
Zr15    O247    0.10508
Zr16    O77    0.05830
Zr16    O116    0.11048
Zr16    O208    0.10428
Zr17    O84    0.05830
Zr17    O109    0.11048
Zr17    O207    0.11048
Zr18    O78    0.05830
Zr18    O115    0.11048
Zr18    O209    0.11048
C97    C98    0.06647
C99    C100    0.04700
C99    O106    0.05692
C99    O182    0.05692
C100    C122    0.05853
C100    C286    0.05853
C101    C102    0.06647
C103    C104    0.04700
C103    O88    0.05692
C103    O204    0.05692
C104    C144    0.05853
C104    C268    0.05853
C105    C106    0.06647
C105    O89    0.04696
C106    C139    0.04844
C107    C108    0.04700
C107    O198    0.05692
C108    C270    0.05853
C109    C110    0.06647
C109    O101    0.04696
C110    C127    0.04844
C111    C112    0.04700
C111    O188    0.05692
C112    C284    0.05853
C113    C114    0.06647
C113    O189    0.04696
C114    C279    0.04844
C115    C116    0.04700
C115    O94    0.05692
C116    C134    0.05853
C117    C118    0.06647
C117    O193    0.04696
C118    C275    0.04844
C119    C120    0.04700
C119    O100    0.05692
C120    C132    0.05853
O77    Zr23    0.11048
O78    Zr21    0.11048
O78    Zr37    0.11048
O79    Zr41    0.11048
O80    Zr20    0.10428
O80    Zr40    0.10428
O81    H69    0.03714
O81    Zr42    0.11048
O82    H70    0.01940
O82    Zr19    0.10428
O82    Zr39    0.10428
O83    H71    0.03714
O83    Zr24    0.11048
O84    H72    0.03714
O84    Zr22    0.11048
O84    Zr38    0.11048
C121    H73    0.04301
C121    C141    0.07396
C121    C146    0.04844
O85    Zr19    0.10836
C122    H74    0.05089
C122    C144    0.05230
O86    Zr19    0.08211
O86    C339    0.05692
C123    H75    0.04301
C123    C143    0.07396
O87    Zr20    0.10836
O87    C149    0.04696
C124    H76    0.05089
C124    C142    0.05230
C124    C344    0.05853
O88    Zr20    0.08211
C125    H77    0.04301
C125    C137    0.07396
C125    C154    0.04844
O89    Zr21    0.10836
C126    H78    0.05089
C126    C140    0.05230
C126    C348    0.05853
O90    Zr21    0.08211
C127    H79    0.04301
C127    C139    0.07396
O91    Zr22    0.10836
O91    C157    0.04696
C128    H80    0.05089
C128    C138    0.05230
O92    Zr22    0.08211
O92    C351    0.05692
C129    H81    0.04301
C129    C133    0.07396
C129    C162    0.04844
O93    Zr23    0.10836
O93    C353    0.04696
C130    H82    0.05089
C130    C136    0.05230
O94    Zr23    0.08211
C131    H83    0.04301
C131    C135    0.07396
C131    C358    0.04844
O95    Zr24    0.10836
O95    C165    0.04696
C132    H84    0.05089
C132    C134    0.05230
O96    Zr24    0.08211
C133    H85    0.04301
C133    C166    0.04844
O97    Zr19    0.10836
O97    C357    0.04696
C134    H86    0.05089
O98    Zr19    0.08211
C135    H87    0.04301
C135    C354    0.04844
O99    Zr20    0.10836
O99    C161    0.04696
C136    H88    0.05089
O100    Zr20    0.08211
C137    H89    0.04301
C137    C158    0.04844
O101    Zr23    0.10836
C138    H90    0.05089
O102    Zr23    0.08211
O102    C347    0.05692
C139    H91    0.04301
O103    Zr24    0.10836
O103    C153    0.04696
C140    H92    0.05089
C140    C352    0.05853
O104    Zr24    0.08211
C141    H93    0.04301
C141    C150    0.04844
O105    Zr21    0.10836
C142    H94    0.05089
C142    C340    0.05853
O106    Zr21    0.08211
C143    H95    0.04301
O107    Zr22    0.10836
O107    C145    0.04696
C144    H96    0.05089
O108    Zr22    0.08211
O108    C343    0.05692
Zr19    O113    0.05830
Zr19    O238    0.11048
Zr20    O111    0.05830
Zr20    O244    0.11048
Zr21    O115    0.05830
Zr21    O242    0.10428
Zr22    O109    0.05830
Zr22    O240    0.10428
Zr23    O116    0.05830
Zr23    O239    0.11048
Zr24    O110    0.05830
Zr24    O241    0.11048
C145    C146    0.06647
C147    C148    0.04700
C147    O214    0.05692
C148    C334    0.05853
C149    C150    0.06647
C151    C152    0.04700
C151    O236    0.05692
C152    C316    0.05853
C153    C154    0.06647
C155    C156    0.04700
C155    O230    0.05692
C156    C318    0.05853
C157    C158    0.06647
C159    C160    0.04700
C159    O220    0.05692
C160    C332    0.05853
C161    C162    0.06647
C161    O221    0.04696
C162    C327    0.04844
C163    C164    0.04700
C165    C166    0.06647
C165    O225    0.04696
C166    C323    0.04844
C167    C168    0.04700
O110    Zr43    0.11048
O111    Zr47    0.11048
O112    Zr46    0.10428
O113    H97    0.03714
O113    Zr48    0.11048
O114    H98    0.01940
O114    Zr45    0.10428
O115    H99    0.03714
O116    H100    0.03714
O116    Zr44    0.11048
C169    H101    0.04301
C169    C189    0.07396
C169    C194    0.04844
O117    Zr25    0.10836
O117    C289    0.04696
C170    H102    0.05089
C170    C192    0.05230
C170    C244    0.05853
O118    Zr25    0.08211
C171    H103    0.04301
C171    C191    0.07396
C171    C294    0.04844
O119    Zr26    0.10836
O119    C197    0.04696
C172    H104    0.05089
C172    C190    0.05230
O120    Zr26    0.08211
O120    C247    0.05692
C173    H105    0.04301
C173    C185    0.07396
C173    C202    0.04844
O121    Zr27    0.10836
O121    C249    0.04696
C174    H106    0.05089
C174    C188    0.05230
O122    Zr27    0.08211
O122    C299    0.05692
C175    H107    0.04301
C175    C187    0.07396
C175    C254    0.04844
O123    Zr28    0.10836
O123    C205    0.04696
C176    H108    0.05089
C176    C186    0.05230
C176    C304    0.05853
O124    Zr28    0.08211
C177    H109    0.04301
C177    C181    0.07396
C177    C210    0.04844
O125    Zr29    0.10836
C178    H110    0.05089
C178    C184    0.05230
C178    C308    0.05853
O126    Zr29    0.08211
O126    C259    0.05692
C179    H111    0.04301
C179    C183    0.07396
O127    Zr30    0.10836
O127    C213    0.04696
C180    H112    0.05089
C180    C182    0.05230
C180    C264    0.05853
O128    Zr30    0.08211
O128    C311    0.05692
C181    H113    0.04301
C181    C214    0.04844
O129    Zr25    0.10836
C182    H114    0.05089
C182    C260    0.05853
O130    Zr25    0.08211
O130    C307    0.05692
C183    H115    0.04301
O131    Zr26    0.10836
O131    C209    0.04696
C184    H116    0.05089
C184    C312    0.05853
O132    Zr26    0.08211
O132    C263    0.05692
C185    H117    0.04301
C185    C206    0.04844
O133    Zr29    0.10836
O133    C253    0.04696
C186    H118    0.05089
C186    C300    0.05853
O134    Zr29    0.08211
C187    H119    0.04301
C187    C250    0.04844
O135    Zr30    0.10836
O135    C201    0.04696
C188    H120    0.05089
O136    Zr30    0.08211
O136    C303    0.05692
C189    H121    0.04301
C189    C198    0.04844
O137    Zr27    0.10836
O137    C293    0.04696
C190    H122    0.05089
O138    Zr27    0.08211
O138    C243    0.05692
C191    H123    0.04301
C191    C290    0.04844
O139    Zr28    0.10836
O139    C193    0.04696
C192    H124    0.05089
C192    C248    0.05853
O140    Zr28    0.08211
Zr25    O145    0.05830
Zr25    O178    0.10428
Zr25    O205    0.11048
Zr26    O143    0.05830
Zr26    O176    0.10428
Zr26    O211    0.11048
Zr27    O147    0.05830
Zr27    O174    0.11048
Zr27    O207    0.11048
Zr28    O141    0.05830
Zr28    O180    0.11048
Zr28    O209    0.11048
Zr29    O148    0.05830
Zr29    O173    0.11048
Zr29    O210    0.10428
Zr30    O142    0.05830
Zr30    O179    0.11048
Zr30    O208    0.10428
C193    C194    0.06647
C193    O181    0.04696
C194    C287    0.04844
C195    C196    0.04700
C195    O170    0.05692
C196    C218    0.05853
C197    C198    0.06647
C197    O201    0.04696
C198    C267    0.04844
C199    C200    0.04700
C199    O152    0.05692
C200    C240    0.05853
C201    C202    0.06647
C201    O153    0.04696
C202    C235    0.04844
C203    C204    0.04700
C203    O186    0.05692
C204    C282    0.05853
C205    C206    0.06647
C205    O165    0.04696
C206    C223    0.04844
C207    C208    0.04700
C207    O200    0.05692
C208    C272    0.05853
C209    C210    0.06647
C211    C212    0.04700
C211    O158    0.05692
C211    O194    0.05692
C212    C230    0.05853
C212    C274    0.05853
C213    C214    0.06647
C215    C216    0.04700
C215    O164    0.05692
C215    O192    0.05692
C216    C228    0.05853
C216    C280    0.05853
O141    Zr35    0.11048
O141    Zr37    0.11048
O142    Zr33    0.11048
O143    Zr39    0.11048
O144    Zr32    0.10428
O144    Zr42    0.10428
O145    H125    0.03714
O145    Zr40    0.11048
O146    H126    0.01940
O146    Zr31    0.10428
O146    Zr41    0.10428
O147    H127    0.03714
O147    Zr36    0.11048
O147    Zr38    0.11048
O148    H128    0.03714
O148    Zr34    0.11048
C217    H129    0.04301
C217    C237    0.07396
C217    C242    0.04844
O149    Zr31    0.10836
O149    C337    0.04696
C218    H130    0.05089
C218    C240    0.05230
O150    Zr31    0.08211
C219    H131    0.04301
C219    C239    0.07396
C219    C342    0.04844
O151    Zr32    0.10836
O151    C245    0.04696
C220    H132    0.05089
C220    C238    0.05230
O152    Zr32    0.08211
C221    H133    0.04301
C221    C233    0.07396
C221    C250    0.04844
O153    Zr33    0.10836
C222    H134    0.05089
C222    C236    0.05230
O154    Zr33    0.08211
O154    C347    0.05692
C223    H135    0.04301
C223    C235    0.07396
O155    Zr34    0.10836
O155    C253    0.04696
C224    H136    0.05089
C224    C234    0.05230
C224    C352    0.05853
O156    Zr34    0.08211
C225    H137    0.04301
C225    C229    0.07396
C225    C258    0.04844
O157    Zr35    0.10836
C226    H138    0.05089
C226    C232    0.05230
C226    C356    0.05853
O158    Zr35    0.08211
C227    H139    0.04301
C227    C231    0.07396
O159    Zr36    0.10836
O159    C261    0.04696
C228    H140    0.05089
C228    C230    0.05230
O160    Zr36    0.08211
O160    C359    0.05692
C229    H141    0.04301
C229    C262    0.04844
O161    Zr31    0.10836
C230    H142    0.05089
O162    Zr31    0.08211
O162    C355    0.05692
C231    H143    0.04301
O163    Zr32    0.10836
O163    C257    0.04696
C232    H144    0.05089
C232    C360    0.05853
O164    Zr32    0.08211
C233    H145    0.04301
C233    C254    0.04844
O165    Zr35    0.10836
C234    H146    0.05089
C234    C348    0.05853
O166    Zr35    0.08211
C235    H147    0.04301
O167    Zr36    0.10836
O167    C249    0.04696
C236    H148    0.05089
O168    Zr36    0.08211
O168    C351    0.05692
C237    H149    0.04301
C237    C246    0.04844
O169    Zr33    0.10836
O169    C341    0.04696
C238    H150    0.05089
O170    Zr33    0.08211
C239    H151    0.04301
C239    C338    0.04844
O171    Zr34    0.10836
O171    C241    0.04696
C240    H152    0.05089
O172    Zr34    0.08211
Zr31    O177    0.05830
Zr31    O237    0.11048
Zr32    O175    0.05830
Zr32    O243    0.11048
Zr33    O179    0.05830
Zr33    O239    0.11048
Zr34    O173    0.05830
Zr34    O241    0.11048
Zr35    O180    0.05830
Zr35    O242    0.10428
Zr36    O174    0.05830
Zr36    O240    0.10428
C241    C242    0.06647
C241    O213    0.04696
C242    C335    0.04844
C243    C244    0.04700
C245    C246    0.06647
C245    O233    0.04696
C246    C315    0.04844
C247    C248    0.04700
C249    C250    0.06647
C251    C252    0.04700
C251    O218    0.05692
C252    C330    0.05853
C253    C254    0.06647
C255    C256    0.04700
C255    O232    0.05692
C256    C320    0.05853
C257    C258    0.06647
C259    C260    0.04700
C259    O226    0.05692
C260    C322    0.05853
C261    C262    0.06647
C263    C264    0.04700
C263    O224    0.05692
C264    C328    0.05853
O173    Zr43    0.11048
O175    Zr45    0.11048
O176    Zr48    0.10428
O177    H153    0.03714
O177    Zr46    0.11048
O178    H154    0.01940
O178    Zr47    0.10428
O179    H155    0.03714
O179    Zr44    0.11048
O180    H156    0.03714
C265    H157    0.04301
C265    C285    0.07396
C265    C290    0.04844
O181    Zr37    0.10836
C266    H158    0.05089
C266    C288    0.05230
C266    C340    0.05853
O182    Zr37    0.08211
C267    H159    0.04301
C267    C287    0.07396
O183    Zr38    0.10836
O183    C293    0.04696
C268    H160    0.05089
C268    C286    0.05230
O184    Zr38    0.08211
O184    C343    0.05692
C269    H161    0.04301
C269    C281    0.07396
C269    C298    0.04844
O185    Zr39    0.10836
O185    C345    0.04696
C270    H162    0.05089
C270    C284    0.05230
O186    Zr39    0.08211
C271    H163    0.04301
C271    C283    0.07396
C271    C350    0.04844
O187    Zr40    0.10836
O187    C301    0.04696
C272    H164    0.05089
C272    C282    0.05230
O188    Zr40    0.08211
C273    H165    0.04301
C273    C277    0.07396
C273    C306    0.04844
O189    Zr41    0.10836
C274    H166    0.05089
C274    C280    0.05230
O190    Zr41    0.08211
O190    C355    0.05692
C275    H167    0.04301
C275    C279    0.07396
O191    Zr42    0.10836
O191    C309    0.04696
C276    H168    0.05089
C276    C278    0.05230
C276    C360    0.05853
O192    Zr42    0.08211
C277    H169    0.04301
C277    C310    0.04844
O193    Zr37    0.10836
C278    H170    0.05089
C278    C356    0.05853
O194    Zr37    0.08211
C279    H171    0.04301
O195    Zr38    0.10836
O195    C305    0.04696
C280    H172    0.05089
O196    Zr38    0.08211
O196    C359    0.05692
C281    H173    0.04301
C281    C302    0.04844
O197    Zr41    0.10836
O197    C349    0.04696
C282    H174    0.05089
O198    Zr41    0.08211
C283    H175    0.04301
C283    C346    0.04844
O199    Zr42    0.10836
O199    C297    0.04696
C284    H176    0.05089
O200    Zr42    0.08211
C285    H177    0.04301
C285    C294    0.04844
O201    Zr39    0.10836
C286    H178    0.05089
O202    Zr39    0.08211
O202    C339    0.05692
C287    H179    0.04301
O203    Zr40    0.10836
O203    C289    0.04696
C288    H180    0.05089
C288    C344    0.05853
O204    Zr40    0.08211
Zr37    O209    0.05830
Zr37    O242    0.10428
Zr38    O207    0.05830
Zr38    O240    0.10428
Zr39    O211    0.05830
Zr39    O238    0.11048
Zr40    O205    0.05830
Zr40    O244    0.11048
Zr41    O212    0.05830
Zr41    O237    0.11048
Zr42    O206    0.05830
Zr42    O243    0.11048
C289    C290    0.06647
C291    C292    0.04700
C291    O234    0.05692
C292    C314    0.05853
C293    C294    0.06647
C295    C296    0.04700
C295    O216    0.05692
C296    C336    0.05853
C297    C298    0.06647
C297    O217    0.04696
C298    C331    0.04844
C299    C300    0.04700
C301    C302    0.06647
C301    O229    0.04696
C302    C319    0.04844
C303    C304    0.04700
C305    C306    0.06647
C307    C308    0.04700
C307    O222    0.05692
C308    C326    0.05853
C309    C310    0.06647
C311    C312    0.04700
C311    O228    0.05692
C312    C324    0.05853
O205    Zr47    0.11048
O206    Zr45    0.11048
O208    Zr44    0.10428
O209    H181    0.03714
O210    H182    0.01940
O210    Zr43    0.10428
O211    H183    0.03714
O211    Zr48    0.11048
O212    H184    0.03714
O212    Zr46    0.11048
C313    H185    0.04301
C313    C333    0.07396
C313    C338    0.04844
O213    Zr43    0.10836
C314    H186    0.05089
C314    C336    0.05230
O214    Zr43    0.08211
C315    H187    0.04301
C315    C335    0.07396
O215    Zr44    0.10836
O215    C341    0.04696
C316    H188    0.05089
C316    C334    0.05230
O216    Zr44    0.08211
C317    H189    0.04301
C317    C329    0.07396
C317    C346    0.04844
O217    Zr45    0.10836
C318    H190    0.05089
C318    C332    0.05230
O218    Zr45    0.08211
C319    H191    0.04301
C319    C331    0.07396
O219    Zr46    0.10836
O219    C349    0.04696
C320    H192    0.05089
C320    C330    0.05230
O220    Zr46    0.08211
C321    H193    0.04301
C321    C325    0.07396
C321    C354    0.04844
O221    Zr47    0.10836
C322    H194    0.05089
C322    C328    0.05230
O222    Zr47    0.08211
C323    H195    0.04301
C323    C327    0.07396
O223    Zr48    0.10836
O223    C357    0.04696
C324    H196    0.05089
C324    C326    0.05230
O224    Zr48    0.08211
C325    H197    0.04301
C325    C358    0.04844
O225    Zr43    0.10836
C326    H198    0.05089
O226    Zr43    0.08211
C327    H199    0.04301
O227    Zr44    0.10836
O227    C353    0.04696
C328    H200    0.05089
O228    Zr44    0.08211
C329    H201    0.04301
C329    C350    0.04844
O229    Zr47    0.10836
C330    H202    0.05089
O230    Zr47    0.08211
C331    H203    0.04301
O231    Zr48    0.10836
O231    C345    0.04696
C332    H204    0.05089
O232    Zr48    0.08211
C333    H205    0.04301
C333    C342    0.04844
O233    Zr45    0.10836
C334    H206    0.05089
O234    Zr45    0.08211
C335    H207    0.04301
O235    Zr46    0.10836
O235    C337    0.04696
C336    H208    0.05089
O236    Zr46    0.08211
Zr43    O241    0.05830
Zr44    O239    0.05830
Zr45    O243    0.05830
Zr46    O237    0.05830
Zr47    O244    0.05830
Zr48    O238    0.05830
C337    C338    0.06647
C339    C340    0.04700
C341    C342    0.06647
C343    C344    0.04700
C345    C346    0.06647
C347    C348    0.04700
C349    C350    0.06647
C351    C352    0.04700
C353    C354    0.06647
C355    C356    0.04700
C357    C358    0.06647
C359    C360    0.04700
O241    H209    0.03714
O242    H210    0.01940
O243    H211    0.03714
O244    H212    0.03714
C361    O245    0.05562
C361    O246    0.05562
C361    H213    0.05371
C362    O247    0.05562
C362    O248    0.05562
C362    H214    0.05371
C363    O249    0.04103
C363    O250    0.04103
C363    H215    0.05371
C364    O251    0.04103
C364    O252    0.04103
C364    H216    0.05371
C365    O253    0.04708
C365    O254    0.04708
C365    H217    0.05371
C366    O255    0.04708
C366    O256    0.04708
C366    H218    0.05371
