data_NiPyC_fragment_trouble_PyC-CH3_PM
_symmetry_space_group_name_H-M    'P1'
_cell_length_a    12.505600
_cell_length_b    25.046800
_cell_length_c    20.553600
_cell_angle_alpha    90.000000
_cell_angle_beta    91.269000
_cell_angle_gamma    90.000000
_symmetry_Int_Tables_number 1

loop_
_symmetry_equiv_pos_as_xyz
'x,y,z'

loop_
_atom_site_label
_atom_site_type_symbol
_atom_site_fract_x
_atom_site_fract_y
_atom_site_fract_z
Ni1    Ni    0.247400    0.376980    0.419715
O1    O    0.120650    0.174810    0.196450
O2    O    0.377450    0.066540    0.185100
O3    O    0.468450    0.176115    0.248650
O4    O    0.033250    0.059900    0.237100
N1    N    0.180550    0.323050    0.357550
H1    H    0.030100    0.488900    0.325250
C1    C    0.203850    0.259550    0.272050
H2    H    0.247550    0.245500    0.238900
C2    C    0.240150    0.301600    0.310850
H3    H    0.309550    0.315650    0.303950
C3    C    0.082250    0.302250    0.367300
H4    H    0.039650    0.317300    0.400350
C4    C    0.041300    0.260150    0.331300
H5    H    0.472300    0.246250    0.339550
C5    C    0.103950    0.238500    0.282300
C6    C    0.439000    0.044650    0.227500
C7    C    0.061000    0.193100    0.240750
Ni2    Ni    0.247400    0.376980    0.919715
O5    O    0.120650    0.174810    0.696450
O6    O    0.377450    0.066540    0.685100
O7    O    0.468450    0.176115    0.748650
O8    O    0.033250    0.059900    0.737100
N2    N    0.313950    0.421450    0.848100
N3    N    0.180550    0.323050    0.857550
C8    C    0.293900    0.479650    0.756700
H6    H    0.250100    0.493100    0.722050
C9    C    0.396600    0.499000    0.766850
C10    C    0.458550    0.477300    0.817700
H7    H    0.030100    0.488900    0.825250
C11    C    0.203850    0.259550    0.772050
H8    H    0.247550    0.245500    0.738900
C12    C    0.240150    0.301600    0.810850
H9    H    0.309550    0.315650    0.803950
C13    C    0.255750    0.440450    0.797500
H10    H    0.186050    0.426500    0.789550
C14    C    0.414250    0.438850    0.856850
H11    H    0.456650    0.424150    0.891300
C15    C    0.082250    0.302250    0.867300
H12    H    0.039650    0.317300    0.900350
C16    C    0.041300    0.260150    0.831300
H13    H    0.472300    0.246250    0.839550
C17    C    0.103950    0.238500    0.782300
C18    C    0.439000    0.044650    0.727500
C19    C    0.061000    0.193100    0.740750
Ni3    Ni    0.247400    0.876980    0.419715
O9    O    0.120650    0.674810    0.196450
O10    O    0.468450    0.676115    0.248650
O11    O    0.033250    0.559900    0.237100
N4    N    0.313950    0.921450    0.348100
N5    N    0.180550    0.823050    0.357550
C20    C    0.293900    0.979650    0.256700
H14    H    0.250100    0.993100    0.222050
C21    C    0.396600    0.999000    0.266850
C22    C    0.458550    0.977300    0.317700
H15    H    0.030100    0.988900    0.325250
C23    C    0.203850    0.759550    0.272050
H16    H    0.247550    0.745500    0.238900
C24    C    0.240150    0.801600    0.310850
H17    H    0.309550    0.815650    0.303950
C25    C    0.255750    0.940450    0.297500
H18    H    0.186050    0.926500    0.289550
C26    C    0.414250    0.938850    0.356850
H19    H    0.456650    0.924150    0.391300
C27    C    0.082250    0.802250    0.367300
H20    H    0.039650    0.817300    0.400350
C28    C    0.041300    0.760150    0.331300
H21    H    0.472300    0.746250    0.339550
C29    C    0.103950    0.738500    0.282300
C30    C    0.061000    0.693100    0.240750
Ni4    Ni    0.247400    0.876980    0.919715
O12    O    0.120650    0.674810    0.696450
O13    O    0.377450    0.566540    0.685100
O14    O    0.468450    0.676115    0.748650
O15    O    0.033250    0.559900    0.737100
N6    N    0.313950    0.921450    0.848100
N7    N    0.180550    0.823050    0.857550
C31    C    0.293900    0.979650    0.756700
H22    H    0.250100    0.993100    0.722050
C32    C    0.396600    0.999000    0.766850
C33    C    0.458550    0.977300    0.817700
H23    H    0.030100    0.988900    0.825250
C34    C    0.203850    0.759550    0.772050
H24    H    0.247550    0.745500    0.738900
C35    C    0.240150    0.801600    0.810850
H25    H    0.309550    0.815650    0.803950
C36    C    0.255750    0.940450    0.797500
H26    H    0.186050    0.926500    0.789550
C37    C    0.414250    0.938850    0.856850
H27    H    0.456650    0.924150    0.891300
C38    C    0.082250    0.802250    0.867300
H28    H    0.039650    0.817300    0.900350
C39    C    0.041300    0.760150    0.831300
H29    H    0.472300    0.746250    0.839550
C40    C    0.103950    0.738500    0.782300
C41    C    0.439000    0.544650    0.727500
C42    C    0.061000    0.693100    0.740750
Ni5    Ni    0.747400    0.376980    0.419715
O16    O    0.620650    0.174810    0.196450
O17    O    0.877450    0.066540    0.185100
O18    O    0.968450    0.176115    0.248650
O19    O    0.533250    0.059900    0.237100
N8    N    0.813950    0.421450    0.348100
N9    N    0.680550    0.323050    0.357550
C43    C    0.793900    0.479650    0.256700
H30    H    0.750100    0.493100    0.222050
C44    C    0.896600    0.499000    0.266850
C45    C    0.958550    0.477300    0.317700
C46    C    0.703850    0.259550    0.272050
H31    H    0.747550    0.245500    0.238900
C47    C    0.740150    0.301600    0.310850
H32    H    0.809550    0.315650    0.303950
C48    C    0.755750    0.440450    0.297500
H33    H    0.686050    0.426500    0.289550
C49    C    0.914250    0.438850    0.356850
H34    H    0.956650    0.424150    0.391300
C50    C    0.582250    0.302250    0.367300
H35    H    0.539650    0.317300    0.400350
C51    C    0.541300    0.260150    0.331300
H36    H    0.972300    0.246250    0.339550
C52    C    0.603950    0.238500    0.282300
C53    C    0.939000    0.044650    0.227500
C54    C    0.561000    0.193100    0.240750
Ni6    Ni    0.747400    0.376980    0.919715
O20    O    0.620650    0.174810    0.696450
O21    O    0.877450    0.066540    0.685100
O22    O    0.968450    0.176115    0.748650
O23    O    0.533250    0.059900    0.737100
N10    N    0.813950    0.421450    0.848100
N11    N    0.680550    0.323050    0.857550
C55    C    0.793900    0.479650    0.756700
H37    H    0.750100    0.493100    0.722050
C56    C    0.896600    0.499000    0.766850
C57    C    0.958550    0.477300    0.817700
H38    H    0.530100    0.488900    0.825250
C58    C    0.703850    0.259550    0.772050
H39    H    0.747550    0.245500    0.738900
C59    C    0.740150    0.301600    0.810850
H40    H    0.809550    0.315650    0.803950
C60    C    0.755750    0.440450    0.797500
H41    H    0.686050    0.426500    0.789550
C61    C    0.914250    0.438850    0.856850
H42    H    0.956650    0.424150    0.891300
C62    C    0.582250    0.302250    0.867300
H43    H    0.539650    0.317300    0.900350
C63    C    0.541300    0.260150    0.831300
H44    H    0.972300    0.246250    0.839550
C64    C    0.603950    0.238500    0.782300
C65    C    0.939000    0.044650    0.727500
C66    C    0.561000    0.193100    0.740750
Ni7    Ni    0.747400    0.876980    0.419715
O24    O    0.620650    0.674810    0.196450
O25    O    0.877450    0.566540    0.185100
O26    O    0.968450    0.676115    0.248650
N12    N    0.813950    0.921450    0.348100
N13    N    0.680550    0.823050    0.357550
C67    C    0.793900    0.979650    0.256700
H45    H    0.750100    0.993100    0.222050
C68    C    0.896600    0.999000    0.266850
C69    C    0.958550    0.977300    0.317700
H46    H    0.530100    0.988900    0.325250
C70    C    0.703850    0.759550    0.272050
H47    H    0.747550    0.745500    0.238900
C71    C    0.740150    0.801600    0.310850
H48    H    0.809550    0.815650    0.303950
C72    C    0.755750    0.940450    0.297500
H49    H    0.686050    0.926500    0.289550
C73    C    0.914250    0.938850    0.356850
H50    H    0.956650    0.924150    0.391300
C74    C    0.582250    0.802250    0.367300
H51    H    0.539650    0.817300    0.400350
C75    C    0.541300    0.760150    0.331300
H52    H    0.972300    0.746250    0.339550
C76    C    0.603950    0.738500    0.282300
C77    C    0.939000    0.544650    0.227500
C78    C    0.561000    0.693100    0.240750
Ni8    Ni    0.747400    0.876980    0.919715
O27    O    0.620650    0.674810    0.696450
O28    O    0.877450    0.566540    0.685100
O29    O    0.968450    0.676115    0.748650
O30    O    0.533250    0.559900    0.737100
N14    N    0.813950    0.921450    0.848100
N15    N    0.680550    0.823050    0.857550
C79    C    0.793900    0.979650    0.756700
H53    H    0.750100    0.993100    0.722050
C80    C    0.896600    0.999000    0.766850
C81    C    0.958550    0.977300    0.817700
H54    H    0.530100    0.988900    0.825250
C82    C    0.703850    0.759550    0.772050
H55    H    0.747550    0.745500    0.738900
C83    C    0.740150    0.801600    0.810850
H56    H    0.809550    0.815650    0.803950
C84    C    0.755750    0.940450    0.797500
H57    H    0.686050    0.926500    0.789550
C85    C    0.914250    0.938850    0.856850
H58    H    0.956650    0.924150    0.891300
C86    C    0.582250    0.802250    0.867300
H59    H    0.539650    0.817300    0.900350
C87    C    0.541300    0.760150    0.831300
H60    H    0.972300    0.746250    0.839550
C88    C    0.603950    0.738500    0.782300
C89    C    0.939000    0.544650    0.727500
C90    C    0.561000    0.693100    0.740750
C91    C    0.146496    0.416018    0.293094
C92    C    0.291731    0.480062    0.255944
C93    C    0.437113    0.542310    0.227644
C94    C    0.252959    0.440783    0.297466
C95    C    0.396234    0.498403    0.266574
C96    C    0.459649    0.477238    0.317370
C97    C    0.415419    0.438330    0.357210
N16    N    0.314209    0.421288    0.346871
H61    H    0.240241    0.495809    0.217156
O31    O    0.379721    0.566202    0.183962
O32    O    0.531616    0.562061    0.237045
H62    H    0.540876    0.490980    0.326833
H63    H    0.459782    0.420474    0.397926
H64    H    0.100934    0.432668    0.253361
H65    H    0.105830    0.422976    0.337561
H66    H    0.155560    0.373973    0.285828

loop_
_geom_bond_atom_site_label_1
_geom_bond_atom_site_label_2
_geom_bond_distance
Ni1    N1    0.10603
O1    C7    0.07652
O2    C6    0.07788
O3    C54    0.09443
O4    C53    0.09596
N1    C2    0.07870
N1    C3    0.10095
H1    C45    0.07288
C1    H2    0.05662
C1    C2    0.06776
C1    C5    0.10261
C2    H3    0.07114
C3    H4    0.05598
C3    C4    0.06889
C4    C5    0.08243
C4    H36    0.07087
H5    C51    0.07087
C5    C7    0.07505
C6    C21    0.07369
C6    O19    0.09596
C7    O18    0.09443
Ni2    N2    0.10740
Ni2    N3    0.10603
O5    C19    0.07652
O6    C18    0.07788
O7    C66    0.09443
O8    C65    0.09596
N2    C13    0.07943
N2    C14    0.10217
N3    C12    0.07870
N3    C15    0.10095
C8    H6    0.05745
C8    C9    0.10500
C8    C13    0.06824
C9    C10    0.08303
C9    C41    0.07369
C10    C14    0.07052
C10    H38    0.07288
H7    C57    0.07288
C11    H8    0.05662
C11    C12    0.06776
C11    C17    0.10261
C12    H9    0.07114
C13    H10    0.07153
C14    H11    0.05657
C15    H12    0.05598
C15    C16    0.06889
C16    C17    0.08243
C16    H44    0.07087
H13    C63    0.07087
C17    C19    0.07505
C18    C32    0.07369
C18    O23    0.09596
C19    O22    0.09443
Ni3    N4    0.10740
Ni3    N5    0.10603
O9    C30    0.07652
O10    C78    0.09443
O11    C77    0.09596
N4    C25    0.07943
N4    C26    0.10217
N5    C24    0.07870
N5    C27    0.10095
C20    H14    0.05745
C20    C21    0.10500
C20    C25    0.06824
C21    C22    0.08303
C22    C26    0.07052
C22    H46    0.07288
H15    C69    0.07288
C23    H16    0.05662
C23    C24    0.06776
C23    C29    0.10261
C24    H17    0.07114
C25    H18    0.07153
C26    H19    0.05657
C27    H20    0.05598
C27    C28    0.06889
C28    C29    0.08243
C28    H52    0.07087
H21    C75    0.07087
C29    C30    0.07505
C30    O26    0.09443
Ni4    N6    0.10740
Ni4    N7    0.10603
O12    C42    0.07652
O13    C41    0.07788
O14    C90    0.09443
O15    C89    0.09596
N6    C36    0.07943
N6    C37    0.10217
N7    C35    0.07870
N7    C38    0.10095
C31    H22    0.05745
C31    C32    0.10500
C31    C36    0.06824
C32    C33    0.08303
C33    C37    0.07052
C33    H54    0.07288
H23    C81    0.07288
C34    H24    0.05662
C34    C35    0.06776
C34    C40    0.10261
C35    H25    0.07114
C36    H26    0.07153
C37    H27    0.05657
C38    H28    0.05598
C38    C39    0.06889
C39    C40    0.08243
C39    H60    0.07087
H29    C87    0.07087
C40    C42    0.07505
C41    O30    0.09596
C42    O29    0.09443
Ni5    N8    0.10740
Ni5    N9    0.10603
O16    C54    0.07652
O17    C53    0.07788
N8    C48    0.07943
N8    C49    0.10217
N9    C47    0.07870
N9    C50    0.10095
C43    H30    0.05745
C43    C44    0.10500
C43    C48    0.06824
C44    C45    0.08303
C44    C77    0.07369
C45    C49    0.07052
C46    H31    0.05662
C46    C47    0.06776
C46    C52    0.10261
C47    H32    0.07114
C48    H33    0.07153
C49    H34    0.05657
C50    H35    0.05598
C50    C51    0.06889
C51    C52    0.08243
C52    C54    0.07505
C53    C68    0.07369
Ni6    N10    0.10740
Ni6    N11    0.10603
O20    C66    0.07652
O21    C65    0.07788
N10    C60    0.07943
N10    C61    0.10217
N11    C59    0.07870
N11    C62    0.10095
C55    H37    0.05745
C55    C56    0.10500
C55    C60    0.06824
C56    C57    0.08303
C56    C89    0.07369
C57    C61    0.07052
C58    H39    0.05662
C58    C59    0.06776
C58    C64    0.10261
C59    H40    0.07114
C60    H41    0.07153
C61    H42    0.05657
C62    H43    0.05598
C62    C63    0.06889
C63    C64    0.08243
C64    C66    0.07505
C65    C80    0.07369
Ni7    N12    0.10740
Ni7    N13    0.10603
O24    C78    0.07652
O25    C77    0.07788
N12    C72    0.07943
N12    C73    0.10217
N13    C71    0.07870
N13    C74    0.10095
C67    H45    0.05745
C67    C68    0.10500
C67    C72    0.06824
C68    C69    0.08303
C69    C73    0.07052
C70    H47    0.05662
C70    C71    0.06776
C70    C76    0.10261
C71    H48    0.07114
C72    H49    0.07153
C73    H50    0.05657
C74    H51    0.05598
C74    C75    0.06889
C75    C76    0.08243
C76    C78    0.07505
Ni8    N14    0.10740
Ni8    N15    0.10603
O27    C90    0.07652
O28    C89    0.07788
N14    C84    0.07943
N14    C85    0.10217
N15    C83    0.07870
N15    C86    0.10095
C79    H53    0.05745
C79    C80    0.10500
C79    C84    0.06824
C80    C81    0.08303
C81    C85    0.07052
C82    H55    0.05662
C82    C83    0.06776
C82    C88    0.10261
C83    H56    0.07114
C84    H57    0.07153
C85    H58    0.05657
C86    H59    0.05598
C86    C87    0.06889
C87    C88    0.08243
C88    C90    0.07505
