data_new_xtal_PM
_symmetry_space_group_name_H-M    'P1'
_cell_length_a    13.715000
_cell_length_b    13.715000
_cell_length_c    7.952260
_cell_angle_alpha    90.000000
_cell_angle_beta    90.000000
_cell_angle_gamma    90.000000
_symmetry_Int_Tables_number 1

loop_
_symmetry_equiv_pos_as_xyz
'x,y,z'

loop_
_atom_site_label
_atom_site_type_symbol
_atom_site_fract_x
_atom_site_fract_y
_atom_site_fract_z
C1    C    0.000000    0.544700    0.000000
Cu1    Cu    0.000000    0.000000    0.000000
Si1    Si    0.000000    0.000000    0.500000
F1    F    0.000000    0.000000    0.283000
F2    F    0.087800    0.087800    0.500000
C2    C    0.455300    0.000000    0.000000
F3    F    0.912200    0.087800    0.500000
C3    C    0.000000    0.455300    0.000000
F4    F    0.912200    0.912200    0.500000
C4    C    0.544700    0.000000    0.000000
F5    F    0.087800    0.912200    0.500000
F6    F    0.000000    0.000000    0.717000
C5    C    0.500000    0.044700    0.500000
Cu2    Cu    0.500000    0.500000    0.500000
Si2    Si    0.500000    0.500000    0.000000
F7    F    0.500000    0.500000    0.783000
F8    F    0.587800    0.587800    0.000000
C6    C    0.955300    0.500000    0.500000
F9    F    0.412200    0.587800    0.000000
C7    C    0.500000    0.955300    0.500000
F10    F    0.412200    0.412200    0.000000
C8    C    0.044700    0.500000    0.500000
F11    F    0.587800    0.412200    0.000000
F12    F    0.500000    0.500000    0.217000
C9    C    0.020421    0.300294    0.152988
C10    C    0.021327    0.199181    0.145696
C11    C    0.027928    0.300259    0.847007
C12    C    0.026069    0.199158    0.854299
C13    C    0.024419    0.352103    0.999998
N1    N    0.023461    0.148970    0.999998
H1    H    0.026261    0.336293    0.274736
H2    H    0.024962    0.157493    0.262258
H3    H    0.022431    0.336312    0.725271
H4    H    0.022042    0.157507    0.737749
C14    C    0.699706    0.020421    0.152988
C15    C    0.800819    0.021327    0.145696
C16    C    0.699741    0.027928    0.847007
C17    C    0.800842    0.026069    0.854299
C18    C    0.647897    0.024419    0.999998
N2    N    0.851030    0.023461    0.999998
H5    H    0.663707    0.026261    0.274736
H6    H    0.842507    0.024962    0.262258
H7    H    0.663688    0.022431    0.725271
H8    H    0.842493    0.022042    0.737749
C19    C    0.020421    0.699706    0.152988
C20    C    0.021327    0.800819    0.145696
C21    C    0.027928    0.699741    0.847007
C22    C    0.026069    0.800842    0.854299
C23    C    0.024419    0.647897    0.999998
N3    N    0.023461    0.851030    0.999998
H9    H    0.026261    0.663707    0.274736
H10    H    0.024962    0.842507    0.262258
H11    H    0.022431    0.663688    0.725271
H12    H    0.022042    0.842493    0.737749
C24    C    0.300294    0.020421    0.152988
C25    C    0.199181    0.021327    0.145696
C26    C    0.300259    0.027928    0.847007
C27    C    0.199158    0.026069    0.854299
C28    C    0.352103    0.024419    0.999998
N4    N    0.148970    0.023461    0.999998
H13    H    0.336293    0.026261    0.274736
H14    H    0.157493    0.024962    0.262258
H15    H    0.336312    0.022431    0.725271
H16    H    0.157507    0.022042    0.737749
C29    C    0.525061    0.800277    0.353101
C30    C    0.522698    0.699169    0.359602
C31    C    0.474939    0.800277    0.646904
C32    C    0.477302    0.699169    0.640403
C33    C    0.500000    0.852104    0.500002
N5    N    0.500000    0.648968    0.500003
H17    H    0.536603    0.836303    0.232595
H18    H    0.535298    0.657499    0.244893
H19    H    0.463397    0.836304    0.767398
H20    H    0.464702    0.657499    0.755099
C34    C    0.199723    0.474939    0.353101
C35    C    0.300831    0.477302    0.359602
C36    C    0.199723    0.525061    0.646904
C37    C    0.300831    0.522698    0.640403
C38    C    0.147896    0.500000    0.500002
N6    N    0.351032    0.500000    0.500003
H21    H    0.163697    0.463397    0.232595
H22    H    0.342501    0.464702    0.244893
H23    H    0.163696    0.536603    0.767398
H24    H    0.342501    0.535298    0.755099
C39    C    0.525061    0.199723    0.353101
C40    C    0.522698    0.300831    0.359602
C41    C    0.474939    0.199723    0.646904
C42    C    0.477302    0.300831    0.640403
C43    C    0.500000    0.147896    0.500002
N7    N    0.500000    0.351032    0.500003
H25    H    0.536603    0.163697    0.232595
H26    H    0.535298    0.342501    0.244893
H27    H    0.463397    0.163696    0.767398
H28    H    0.464702    0.342501    0.755099
C44    C    0.800277    0.474939    0.646899
C45    C    0.699169    0.477302    0.640398
C46    C    0.800277    0.525061    0.353096
C47    C    0.699169    0.522698    0.359597
C48    C    0.852104    0.500000    0.499998
N8    N    0.648968    0.500000    0.499997
H29    H    0.836303    0.463397    0.767405
H30    H    0.657499    0.464702    0.755107
H31    H    0.836304    0.536603    0.232602
H32    H    0.657499    0.535298    0.244901

loop_
_geom_bond_atom_site_label_1
_geom_bond_atom_site_label_2
_geom_bond_distance
C1    C3    0.08940
C1    C23    0.10605
Cu1    N1    0.15081
Cu1    N2    0.15081
Cu1    N3    0.15081
Cu1    N4    0.15081
Si1    F1    0.21700
Si1    F2    0.12417
Si1    F3    0.12417
Si1    F4    0.12417
Si1    F5    0.12417
Si1    F6    0.21700
C2    C4    0.08940
C2    C28    0.10605
C3    C13    0.10605
C4    C18    0.10605
C5    C7    0.08940
C5    C43    0.10320
Cu2    N5    0.14897
Cu2    N6    0.14897
Cu2    N7    0.14897
Cu2    N8    0.14897
Si2    F7    0.21700
Si2    F8    0.12417
Si2    F9    0.12417
Si2    F10    0.12417
Si2    F11    0.12417
Si2    F12    0.21700
C6    C8    0.08940
C6    C48    0.10320
C7    C33    0.10320
C8    C38    0.10320
C9    C10    0.10138
C9    C13    0.16157
C9    H1    0.12709
C10    N1    0.15412
C10    H2    0.12385
C11    C12    0.10138
C11    C13    0.16157
C11    H3    0.12708
C12    N1    0.15412
C12    H4    0.12383
C14    C15    0.10138
C14    C18    0.16157
C14    H5    0.12709
C15    N2    0.15412
C15    H6    0.12385
C16    C17    0.10138
C16    C18    0.16157
C16    H7    0.12708
C17    N2    0.15412
C17    H8    0.12383
C19    C20    0.10138
C19    C23    0.16157
C19    H9    0.12709
C20    N3    0.15412
C20    H10    0.12385
C21    C22    0.10138
C21    C23    0.16157
C21    H11    0.12708
C22    N3    0.15412
C22    H12    0.12383
C24    C25    0.10138
C24    C28    0.16157
C24    H13    0.12709
C25    N4    0.15412
C25    H14    0.12385
C26    C27    0.10138
C26    C28    0.16157
C26    H15    0.12708
C27    N4    0.15412
C27    H16    0.12383
C29    C30    0.10134
C29    C33    0.15778
C29    H17    0.12630
C30    N5    0.15082
C30    H18    0.12269
C31    C32    0.10134
C31    C33    0.15778
C31    H19    0.12629
C32    N5    0.15082
C32    H20    0.12268
C34    C35    0.10134
C34    C38    0.15778
C34    H21    0.12630
C35    N6    0.15082
C35    H22    0.12269
C36    C37    0.10134
C36    C38    0.15778
C36    H23    0.12629
C37    N6    0.15082
C37    H24    0.12268
C39    C40    0.10134
C39    C43    0.15778
C39    H25    0.12630
C40    N7    0.15082
C40    H26    0.12269
C41    C42    0.10134
C41    C43    0.15778
C41    H27    0.12629
C42    N7    0.15082
C42    H28    0.12268
C44    C45    0.10134
C44    C48    0.15778
C44    H29    0.12630
C45    N8    0.15082
C45    H30    0.12269
C46    C47    0.10134
C46    C48    0.15778
C46    H31    0.12629
C47    N8    0.15082
C47    H32    0.12268
