data_new_xtal_PM
_symmetry_space_group_name_H-M    'P1'
_cell_length_a    25.832000
_cell_length_b    25.832000
_cell_length_c    25.832000
_cell_angle_alpha    90.000000
_cell_angle_beta    90.000000
_cell_angle_gamma    90.000000
_symmetry_Int_Tables_number 1

loop_
_symmetry_equiv_pos_as_xyz
'x,y,z'

loop_
_atom_site_label
_atom_site_type_symbol
_atom_site_fract_x
_atom_site_fract_y
_atom_site_fract_z
Zn1    Zn    0.293380    0.206620    0.206620
Zn2    Zn    0.706620    0.793380    0.206620
Zn3    Zn    0.706620    0.206620    0.793380
Zn4    Zn    0.293380    0.793380    0.793380
Zn5    Zn    0.206620    0.293380    0.206620
Zn6    Zn    0.206620    0.706620    0.793380
Zn7    Zn    0.793380    0.706620    0.206620
Zn8    Zn    0.793380    0.293380    0.793380
Zn9    Zn    0.206620    0.206620    0.293380
Zn10    Zn    0.793380    0.206620    0.706620
Zn11    Zn    0.206620    0.793380    0.706620
Zn12    Zn    0.793380    0.793380    0.293380
Zn13    Zn    0.206620    0.293380    0.793380
Zn14    Zn    0.793380    0.706620    0.793380
Zn15    Zn    0.206620    0.706620    0.206620
Zn16    Zn    0.793380    0.293380    0.206620
Zn17    Zn    0.293380    0.206620    0.793380
Zn18    Zn    0.706620    0.206620    0.206620
Zn19    Zn    0.706620    0.793380    0.793380
Zn20    Zn    0.293380    0.793380    0.206620
Zn21    Zn    0.206620    0.206620    0.706620
Zn22    Zn    0.206620    0.793380    0.293380
Zn23    Zn    0.793380    0.206620    0.293380
Zn24    Zn    0.793380    0.793380    0.706620
Zn25    Zn    0.293380    0.706620    0.706620
Zn26    Zn    0.706620    0.293380    0.706620
Zn27    Zn    0.706620    0.706620    0.293380
Zn28    Zn    0.293380    0.293380    0.293380
Zn29    Zn    0.293380    0.706620    0.293380
Zn30    Zn    0.706620    0.706620    0.706620
Zn31    Zn    0.706620    0.293380    0.293380
Zn32    Zn    0.293380    0.293380    0.706620
O1    O    0.250000    0.250000    0.250000
O2    O    0.750000    0.750000    0.250000
O3    O    0.750000    0.250000    0.750000
O4    O    0.250000    0.750000    0.750000
O5    O    0.250000    0.250000    0.750000
O6    O    0.750000    0.750000    0.750000
O7    O    0.250000    0.750000    0.250000
O8    O    0.750000    0.250000    0.250000
O9    O    0.281870    0.218130    0.134000
O10    O    0.718130    0.781870    0.134000
O11    O    0.718130    0.218130    0.866000
O12    O    0.281870    0.781870    0.866000
O13    O    0.134000    0.281870    0.218130
O14    O    0.134000    0.718130    0.781870
O15    O    0.866000    0.718130    0.218130
O16    O    0.866000    0.281870    0.781870
O17    O    0.218130    0.134000    0.281870
O18    O    0.781870    0.134000    0.718130
O19    O    0.218130    0.866000    0.718130
O20    O    0.781870    0.866000    0.281870
O21    O    0.218130    0.281870    0.866000
O22    O    0.781870    0.718130    0.866000
O23    O    0.218130    0.718130    0.134000
O24    O    0.781870    0.281870    0.134000
O25    O    0.281870    0.134000    0.781870
O26    O    0.718130    0.134000    0.218130
O27    O    0.718130    0.866000    0.781870
O28    O    0.281870    0.866000    0.218130
O29    O    0.134000    0.218130    0.718130
O30    O    0.134000    0.781870    0.281870
O31    O    0.866000    0.218130    0.281870
O32    O    0.866000    0.781870    0.718130
O33    O    0.281870    0.718130    0.634000
O34    O    0.718130    0.281870    0.634000
O35    O    0.718130    0.718130    0.366000
O36    O    0.281870    0.281870    0.366000
O37    O    0.134000    0.781870    0.718130
O38    O    0.134000    0.218130    0.281870
O39    O    0.866000    0.218130    0.718130
O40    O    0.866000    0.781870    0.281870
O41    O    0.218130    0.634000    0.781870
O42    O    0.781870    0.634000    0.218130
O43    O    0.218130    0.366000    0.218130
O44    O    0.781870    0.366000    0.781870
O45    O    0.218130    0.781870    0.366000
O46    O    0.781870    0.218130    0.366000
O47    O    0.218130    0.218130    0.634000
O48    O    0.781870    0.781870    0.634000
O49    O    0.281870    0.634000    0.281870
O50    O    0.718130    0.634000    0.718130
O51    O    0.718130    0.366000    0.281870
O52    O    0.281870    0.366000    0.718130
O53    O    0.134000    0.718130    0.218130
O54    O    0.134000    0.281870    0.781870
O55    O    0.866000    0.718130    0.781870
O56    O    0.866000    0.281870    0.218130
O57    O    0.781870    0.218130    0.634000
O58    O    0.218130    0.781870    0.634000
O59    O    0.218130    0.218130    0.366000
O60    O    0.781870    0.781870    0.366000
O61    O    0.634000    0.281870    0.718130
O62    O    0.634000    0.718130    0.281870
O63    O    0.366000    0.718130    0.718130
O64    O    0.366000    0.281870    0.281870
O65    O    0.718130    0.134000    0.781870
O66    O    0.281870    0.134000    0.218130
O67    O    0.718130    0.866000    0.218130
O68    O    0.281870    0.866000    0.781870
O69    O    0.718130    0.281870    0.366000
O70    O    0.281870    0.718130    0.366000
O71    O    0.718130    0.718130    0.634000
O72    O    0.281870    0.281870    0.634000
O73    O    0.781870    0.134000    0.281870
O74    O    0.218130    0.134000    0.718130
O75    O    0.218130    0.866000    0.281870
O76    O    0.781870    0.866000    0.718130
O77    O    0.634000    0.218130    0.218130
O78    O    0.634000    0.781870    0.781870
O79    O    0.366000    0.218130    0.781870
O80    O    0.366000    0.781870    0.218130
O81    O    0.781870    0.718130    0.134000
O82    O    0.218130    0.281870    0.134000
O83    O    0.218130    0.718130    0.866000
O84    O    0.781870    0.281870    0.866000
O85    O    0.634000    0.781870    0.218130
O86    O    0.634000    0.218130    0.781870
O87    O    0.366000    0.218130    0.218130
O88    O    0.366000    0.781870    0.781870
O89    O    0.718130    0.634000    0.281870
O90    O    0.281870    0.634000    0.718130
O91    O    0.718130    0.366000    0.718130
O92    O    0.281870    0.366000    0.281870
O93    O    0.718130    0.781870    0.866000
O94    O    0.281870    0.218130    0.866000
O95    O    0.718130    0.218130    0.134000
O96    O    0.281870    0.781870    0.134000
O97    O    0.781870    0.634000    0.781870
O98    O    0.218130    0.634000    0.218130
O99    O    0.218130    0.366000    0.781870
O100    O    0.781870    0.366000    0.218130
O101    O    0.634000    0.718130    0.718130
O102    O    0.634000    0.281870    0.281870
O103    O    0.366000    0.718130    0.281870
O104    O    0.366000    0.281870    0.718130
C1    C    0.250000    0.250000    0.945766
C2    C    0.283186    0.216814    0.972922
C3    C    0.216813    0.283187    0.972923
C4    C    0.283187    0.216814    0.027077
C5    C    0.250000    0.250000    0.054234
C6    C    0.216813    0.283186    0.027078
H1    H    0.308955    0.191045    0.047817
H2    H    0.308955    0.191046    0.952182
H3    H    0.191044    0.308955    0.952182
H4    H    0.191044    0.308955    0.047819
C7    C    0.250001    0.249999    0.111915
C8    C    0.250001    0.249999    0.888085
C9    C    0.750001    0.749999    0.945766
C10    C    0.716814    0.783186    0.972922
C11    C    0.783187    0.716813    0.972923
C12    C    0.716814    0.783186    0.027077
C13    C    0.750000    0.750000    0.054234
C14    C    0.783187    0.716813    0.027078
H5    H    0.691045    0.808955    0.047817
H6    H    0.691045    0.808954    0.952182
H7    H    0.808956    0.691045    0.952182
H8    H    0.808955    0.691045    0.047819
C15    C    0.749999    0.750001    0.111915
C16    C    0.749999    0.750001    0.888085
C17    C    0.750000    0.250000    0.054234
C18    C    0.783186    0.283186    0.027078
C19    C    0.716813    0.216813    0.027077
C20    C    0.783186    0.283187    0.972923
C21    C    0.750000    0.250000    0.945766
C22    C    0.716813    0.216813    0.972922
H9    H    0.808955    0.308955    0.952183
H10    H    0.808954    0.308955    0.047818
H11    H    0.691045    0.191044    0.047819
H12    H    0.691045    0.191045    0.952181
C23    C    0.750000    0.250001    0.888085
C24    C    0.750001    0.250001    0.111915
C25    C    0.249999    0.749999    0.945766
C26    C    0.283186    0.783186    0.972922
C27    C    0.216813    0.716813    0.972923
C28    C    0.283186    0.783186    0.027077
C29    C    0.250000    0.750000    0.054234
C30    C    0.216813    0.716813    0.027078
H13    H    0.308955    0.808955    0.047817
H14    H    0.308955    0.808954    0.952182
H15    H    0.191044    0.691045    0.952182
H16    H    0.191045    0.691045    0.047819
C31    C    0.250001    0.750001    0.111915
C32    C    0.250001    0.750001    0.888085
C33    C    0.945766    0.249999    0.250001
C34    C    0.972922    0.283186    0.216814
C35    C    0.972923    0.216813    0.283187
C36    C    0.027077    0.283186    0.216814
C37    C    0.054234    0.250000    0.250000
C38    C    0.027078    0.216813    0.283187
H17    H    0.047817    0.308955    0.191045
H18    H    0.952182    0.308955    0.191046
H19    H    0.952182    0.191044    0.308955
H20    H    0.047819    0.191045    0.308955
C39    C    0.111915    0.250001    0.249999
C40    C    0.888085    0.250001    0.249999
C41    C    0.945766    0.750000    0.750000
C42    C    0.972922    0.783186    0.716814
C43    C    0.972923    0.716813    0.783187
C44    C    0.027077    0.783187    0.716814
C45    C    0.054234    0.750000    0.750000
C46    C    0.027078    0.716813    0.783187
H21    H    0.047817    0.808955    0.691045
H22    H    0.952182    0.808955    0.691046
H23    H    0.952181    0.691044    0.808955
H24    H    0.047819    0.691045    0.808955
C47    C    0.111915    0.750001    0.750000
C48    C    0.888085    0.750001    0.749999
C49    C    0.945766    0.750000    0.250000
C50    C    0.972922    0.716814    0.216814
C51    C    0.972923    0.783187    0.283187
C52    C    0.027077    0.716813    0.216814
C53    C    0.054234    0.750000    0.250000
C54    C    0.027078    0.783187    0.283187
H25    H    0.047817    0.691045    0.191045
H26    H    0.952182    0.691045    0.191046
H27    H    0.952181    0.808956    0.308955
H28    H    0.047819    0.808955    0.308955
C55    C    0.111915    0.749999    0.250000
C56    C    0.888085    0.749999    0.249999
C57    C    0.945766    0.250000    0.750000
C58    C    0.972923    0.216814    0.716814
C59    C    0.972923    0.283187    0.783187
C60    C    0.027077    0.216814    0.716814
C61    C    0.054234    0.250000    0.750000
C62    C    0.027078    0.283187    0.783187
H29    H    0.047817    0.191045    0.691045
H30    H    0.952182    0.191045    0.691045
H31    H    0.952182    0.308956    0.808955
H32    H    0.047819    0.308955    0.808955
C63    C    0.111915    0.249999    0.749999
C64    C    0.888085    0.249999    0.749999
C65    C    0.249999    0.945766    0.250001
C66    C    0.283186    0.972922    0.216814
C67    C    0.216813    0.972923    0.283187
C68    C    0.283186    0.027077    0.216814
C69    C    0.250000    0.054234    0.250000
C70    C    0.216813    0.027078    0.283187
H33    H    0.308955    0.047817    0.191045
H34    H    0.308955    0.952182    0.191046
H35    H    0.191044    0.952182    0.308955
H36    H    0.191045    0.047819    0.308955
C71    C    0.250001    0.111915    0.249999
C72    C    0.250001    0.888085    0.249999
C73    C    0.749999    0.945766    0.750001
C74    C    0.783186    0.972922    0.716814
C75    C    0.716813    0.972923    0.783187
C76    C    0.783186    0.027077    0.716814
C77    C    0.750000    0.054234    0.750000
C78    C    0.716813    0.027078    0.783187
H37    H    0.808955    0.047817    0.691045
H38    H    0.808954    0.952182    0.691045
H39    H    0.691045    0.952182    0.808956
H40    H    0.691045    0.047819    0.808955
C79    C    0.750001    0.111915    0.749999
C80    C    0.750001    0.888085    0.749999
C81    C    0.250000    0.945766    0.750000
C82    C    0.216814    0.972922    0.716814
C83    C    0.283187    0.972923    0.783187
C84    C    0.216814    0.027077    0.716813
C85    C    0.250000    0.054234    0.750000
C86    C    0.283187    0.027078    0.783187
H41    H    0.191045    0.047817    0.691045
H42    H    0.191046    0.952182    0.691045
H43    H    0.308955    0.952181    0.808956
H44    H    0.308955    0.047819    0.808955
C87    C    0.250000    0.111915    0.749999
C88    C    0.249999    0.888085    0.749999
C89    C    0.749999    0.945766    0.249999
C90    C    0.783186    0.972922    0.283186
C91    C    0.716813    0.972923    0.216813
C92    C    0.783186    0.027077    0.283186
C93    C    0.750000    0.054234    0.250000
C94    C    0.716813    0.027078    0.216813
H45    H    0.808955    0.047817    0.308955
H46    H    0.808954    0.952182    0.308955
H47    H    0.691045    0.952182    0.191044
H48    H    0.691045    0.047819    0.191045
C95    C    0.750001    0.111915    0.250001
C96    C    0.750001    0.888085    0.250001
C97    C    0.250000    0.750000    0.445766
C98    C    0.283186    0.716814    0.472923
C99    C    0.216813    0.783187    0.472923
C100    C    0.283186    0.716814    0.527077
C101    C    0.250000    0.750000    0.554234
C102    C    0.216813    0.783187    0.527078
H49    H    0.308955    0.691045    0.547817
H50    H    0.308955    0.691045    0.452182
H51    H    0.191044    0.808955    0.452182
H52    H    0.191045    0.808955    0.547819
C103    C    0.250001    0.749999    0.611915
C104    C    0.250001    0.749999    0.388085
C105    C    0.750000    0.250000    0.554234
C106    C    0.783186    0.216814    0.527077
C107    C    0.716813    0.283187    0.527077
C108    C    0.783186    0.216814    0.472923
C109    C    0.750000    0.250000    0.445766
C110    C    0.716813    0.283187    0.472922
H53    H    0.808955    0.191045    0.452183
H54    H    0.808955    0.191045    0.547818
H55    H    0.691045    0.308956    0.547818
H56    H    0.691045    0.308955    0.452181
C111    C    0.750001    0.249999    0.388085
C112    C    0.750001    0.249999    0.611915
C113    C    0.750000    0.750000    0.554234
C114    C    0.716814    0.716814    0.527078
C115    C    0.783187    0.783187    0.527077
C116    C    0.716813    0.716814    0.472923
C117    C    0.750000    0.750000    0.445766
C118    C    0.783187    0.783187    0.472922
H57    H    0.691045    0.691045    0.452183
H58    H    0.691045    0.691046    0.547818
H59    H    0.808956    0.808955    0.547819
H60    H    0.808955    0.808955    0.452181
C119    C    0.749999    0.750000    0.388085
C120    C    0.749999    0.749999    0.611915
C121    C    0.250000    0.250000    0.554234
C122    C    0.283186    0.283186    0.527078
C123    C    0.216813    0.216813    0.527077
C124    C    0.283186    0.283187    0.472923
C125    C    0.250000    0.250000    0.445766
C126    C    0.216813    0.216813    0.472922
H61    H    0.308955    0.308955    0.452183
H62    H    0.308954    0.308955    0.547818
H63    H    0.191045    0.191044    0.547819
H64    H    0.191045    0.191045    0.452181
C127    C    0.250000    0.250001    0.388085
C128    C    0.250001    0.250001    0.611915
C129    C    0.249999    0.445766    0.750001
C130    C    0.283186    0.472922    0.716814
C131    C    0.216813    0.472923    0.783187
C132    C    0.283186    0.527077    0.716814
C133    C    0.250000    0.554234    0.750000
C134    C    0.216813    0.527078    0.783187
H65    H    0.308955    0.547817    0.691045
H66    H    0.308955    0.452182    0.691046
H67    H    0.191044    0.452182    0.808955
H68    H    0.191045    0.547819    0.808955
C135    C    0.250001    0.611915    0.749999
C136    C    0.250001    0.388085    0.749999
C137    C    0.750000    0.554234    0.250000
C138    C    0.783186    0.527078    0.216814
C139    C    0.716813    0.527077    0.283187
C140    C    0.783186    0.472923    0.216813
C141    C    0.750000    0.445766    0.250000
C142    C    0.716814    0.472922    0.283187
H69    H    0.808955    0.452183    0.191045
H70    H    0.808954    0.547818    0.191045
H71    H    0.691045    0.547818    0.308956
H72    H    0.691045    0.452181    0.308956
C143    C    0.750001    0.388085    0.249999
C144    C    0.750001    0.611915    0.249999
C145    C    0.250000    0.554234    0.250000
C146    C    0.283186    0.527077    0.283186
C147    C    0.216813    0.527077    0.216813
C148    C    0.283186    0.472923    0.283186
C149    C    0.250000    0.445766    0.250000
C150    C    0.216813    0.472922    0.216813
H73    H    0.308955    0.452183    0.308955
H74    H    0.308955    0.547818    0.308955
H75    H    0.191045    0.547818    0.191044
H76    H    0.191045    0.452181    0.191045
C151    C    0.250001    0.388085    0.250001
C152    C    0.250001    0.611915    0.250001
C153    C    0.750000    0.445766    0.750000
C154    C    0.783186    0.472922    0.783186
C155    C    0.716813    0.472923    0.716813
C156    C    0.783187    0.527077    0.783186
C157    C    0.750000    0.554234    0.750000
C158    C    0.716813    0.527078    0.716814
H77    H    0.808955    0.547817    0.808955
H78    H    0.808955    0.452182    0.808954
H79    H    0.691044    0.452182    0.691045
H80    H    0.691044    0.547819    0.691045
C159    C    0.750001    0.611915    0.750001
C160    C    0.750001    0.388085    0.750001
C161    C    0.554234    0.250000    0.750000
C162    C    0.527078    0.283186    0.716814
C163    C    0.527077    0.216813    0.783187
C164    C    0.472923    0.283186    0.716813
C165    C    0.445766    0.250000    0.750000
C166    C    0.472922    0.216813    0.783187
H81    H    0.452183    0.308955    0.691045
H82    H    0.547818    0.308954    0.691045
H83    H    0.547819    0.191045    0.808956
H84    H    0.452181    0.191045    0.808955
C167    C    0.388085    0.250000    0.749999
C168    C    0.611915    0.250001    0.749999
C169    C    0.445766    0.749999    0.250001
C170    C    0.472922    0.783186    0.216814
C171    C    0.472923    0.716813    0.283187
C172    C    0.527077    0.783186    0.216814
C173    C    0.554234    0.750000    0.250000
C174    C    0.527078    0.716813    0.283187
H85    H    0.547817    0.808955    0.191045
H86    H    0.452182    0.808954    0.191045
H87    H    0.452182    0.691045    0.308956
H88    H    0.547819    0.691045    0.308955
C175    C    0.611915    0.750001    0.249999
C176    C    0.388085    0.750001    0.249999
C177    C    0.445766    0.750000    0.750000
C178    C    0.472922    0.716814    0.716814
C179    C    0.472923    0.783187    0.783187
C180    C    0.527077    0.716813    0.716814
C181    C    0.554234    0.750000    0.750000
C182    C    0.527078    0.783187    0.783186
H89    H    0.547817    0.691045    0.691045
H90    H    0.452182    0.691045    0.691046
H91    H    0.452182    0.808956    0.808955
H92    H    0.547819    0.808956    0.808955
C183    C    0.611915    0.749999    0.749999
C184    C    0.388085    0.749999    0.749999
C185    C    0.554234    0.250000    0.250000
C186    C    0.527078    0.283186    0.283186
C187    C    0.527077    0.216813    0.216813
C188    C    0.472923    0.283187    0.283186
C189    C    0.445766    0.250000    0.250000
C190    C    0.472922    0.216813    0.216813
H93    H    0.452183    0.308955    0.308955
H94    H    0.547818    0.308955    0.308954
H95    H    0.547819    0.191044    0.191045
H96    H    0.452181    0.191045    0.191045
C191    C    0.388085    0.250001    0.250000
C192    C    0.611915    0.250001    0.250001

loop_
_geom_bond_atom_site_label_1
_geom_bond_atom_site_label_2
_geom_bond_distance
Zn1    O1    0.07514
Zn1    O9    0.07442
Zn1    O66    0.07442
Zn1    O87    0.07442
Zn2    O2    0.07514
Zn2    O10    0.07442
Zn2    O67    0.07442
Zn2    O85    0.07442
Zn3    O3    0.07514
Zn3    O11    0.07442
Zn3    O65    0.07442
Zn3    O86    0.07442
Zn4    O4    0.07514
Zn4    O12    0.07442
Zn4    O68    0.07442
Zn4    O88    0.07442
Zn5    O1    0.07514
Zn5    O13    0.07442
Zn5    O43    0.07442
Zn5    O82    0.07442
Zn6    O4    0.07514
Zn6    O14    0.07442
Zn6    O41    0.07442
Zn6    O83    0.07442
Zn7    O2    0.07514
Zn7    O15    0.07442
Zn7    O42    0.07442
Zn7    O81    0.07442
Zn8    O3    0.07514
Zn8    O16    0.07442
Zn8    O44    0.07442
Zn8    O84    0.07442
Zn9    O1    0.07514
Zn9    O17    0.07442
Zn9    O38    0.07442
Zn9    O59    0.07442
Zn10    O3    0.07514
Zn10    O18    0.07442
Zn10    O39    0.07442
Zn10    O57    0.07442
Zn11    O4    0.07514
Zn11    O19    0.07442
Zn11    O37    0.07442
Zn11    O58    0.07442
Zn12    O2    0.07514
Zn12    O20    0.07442
Zn12    O40    0.07442
Zn12    O60    0.07442
Zn13    O5    0.07514
Zn13    O21    0.07442
Zn13    O54    0.07442
Zn13    O99    0.07442
Zn14    O6    0.07514
Zn14    O22    0.07442
Zn14    O55    0.07442
Zn14    O97    0.07442
Zn15    O7    0.07514
Zn15    O23    0.07442
Zn15    O53    0.07442
Zn15    O98    0.07442
Zn16    O8    0.07514
Zn16    O24    0.07442
Zn16    O56    0.07442
Zn16    O100    0.07442
Zn17    O5    0.07514
Zn17    O25    0.07442
Zn17    O79    0.07442
Zn17    O94    0.07442
Zn18    O8    0.07514
Zn18    O26    0.07442
Zn18    O77    0.07442
Zn18    O95    0.07442
Zn19    O6    0.07514
Zn19    O27    0.07442
Zn19    O78    0.07442
Zn19    O93    0.07442
Zn20    O7    0.07514
Zn20    O28    0.07442
Zn20    O80    0.07442
Zn20    O96    0.07442
Zn21    O5    0.07514
Zn21    O29    0.07442
Zn21    O47    0.07442
Zn21    O74    0.07442
Zn22    O7    0.07514
Zn22    O30    0.07442
Zn22    O45    0.07442
Zn22    O75    0.07442
Zn23    O8    0.07514
Zn23    O31    0.07442
Zn23    O46    0.07442
Zn23    O73    0.07442
Zn24    O6    0.07514
Zn24    O32    0.07442
Zn24    O48    0.07442
Zn24    O76    0.07442
Zn25    O4    0.07514
Zn25    O33    0.07442
Zn25    O63    0.07442
Zn25    O90    0.07442
Zn26    O3    0.07514
Zn26    O34    0.07442
Zn26    O61    0.07442
Zn26    O91    0.07442
Zn27    O2    0.07514
Zn27    O35    0.07442
Zn27    O62    0.07442
Zn27    O89    0.07442
Zn28    O1    0.07514
Zn28    O36    0.07442
Zn28    O64    0.07442
Zn28    O92    0.07442
Zn29    O7    0.07514
Zn29    O49    0.07442
Zn29    O70    0.07442
Zn29    O103    0.07442
Zn30    O6    0.07514
Zn30    O50    0.07442
Zn30    O71    0.07442
Zn30    O101    0.07442
Zn31    O8    0.07514
Zn31    O51    0.07442
Zn31    O69    0.07442
Zn31    O102    0.07442
Zn32    O5    0.07514
Zn32    O52    0.07442
Zn32    O72    0.07442
Zn32    O104    0.07442
O9    C7    0.05019
O10    C15    0.05019
O11    C23    0.05019
O12    C32    0.05019
O13    C39    0.05019
O14    C47    0.05019
O15    C56    0.05019
O16    C64    0.05019
O17    C71    0.05019
O18    C79    0.05019
O19    C88    0.05019
O20    C96    0.05019
O21    C8    0.05019
O22    C16    0.05019
O23    C31    0.05019
O24    C24    0.05019
O25    C87    0.05019
O26    C95    0.05019
O27    C80    0.05019
O28    C72    0.05019
O29    C63    0.05019
O30    C55    0.05019
O31    C40    0.05019
O32    C48    0.05019
O33    C103    0.05019
O34    C112    0.05019
O35    C119    0.05019
O36    C127    0.05019
O37    C47    0.05019
O38    C39    0.05019
O39    C64    0.05019
O40    C56    0.05019
O41    C135    0.05019
O42    C144    0.05019
O43    C151    0.05019
O44    C160    0.05019
O45    C104    0.05019
O46    C111    0.05019
O47    C128    0.05019
O48    C120    0.05019
O49    C152    0.05019
O50    C159    0.05019
O51    C143    0.05019
O52    C136    0.05019
O53    C55    0.05019
O54    C63    0.05019
O55    C48    0.05019
O56    C40    0.05019
O57    C112    0.05019
O58    C103    0.05019
O59    C127    0.05019
O60    C119    0.05019
O61    C168    0.05019
O62    C175    0.05019
O63    C184    0.05019
O64    C191    0.05019
O65    C79    0.05019
O66    C71    0.05019
O67    C96    0.05019
O68    C88    0.05019
O69    C111    0.05019
O70    C104    0.05019
O71    C120    0.05019
O72    C128    0.05019
O73    C95    0.05019
O74    C87    0.05019
O75    C72    0.05019
O76    C80    0.05019
O77    C192    0.05019
O78    C183    0.05019
O79    C167    0.05019
O80    C176    0.05019
O81    C15    0.05019
O82    C7    0.05019
O83    C32    0.05019
O84    C23    0.05019
O85    C175    0.05019
O86    C168    0.05019
O87    C191    0.05019
O88    C184    0.05019
O89    C144    0.05019
O90    C135    0.05019
O91    C160    0.05019
O92    C151    0.05019
O93    C16    0.05019
O94    C8    0.05019
O95    C24    0.05019
O96    C31    0.05019
O97    C159    0.05019
O98    C152    0.05019
O99    C136    0.05019
O100    C143    0.05019
O101    C183    0.05019
O102    C192    0.05019
O103    C176    0.05019
O104    C167    0.05019
C1    C2    0.05422
C1    C3    0.05422
C1    C8    0.05768
C2    C4    0.05415
C2    H2    0.04193
C3    C6    0.05415
C3    H3    0.04193
C4    C5    0.05422
C4    H1    0.04193
C5    C6    0.05422
C5    C7    0.05768
C6    H4    0.04193
C9    C10    0.05422
C9    C11    0.05422
C9    C16    0.05768
C10    C12    0.05415
C10    H6    0.04193
C11    C14    0.05415
C11    H7    0.04193
C12    C13    0.05422
C12    H5    0.04193
C13    C14    0.05422
C13    C15    0.05768
C14    H8    0.04193
C17    C18    0.05422
C17    C19    0.05422
C17    C24    0.05768
C18    C20    0.05415
C18    H10    0.04193
C19    C22    0.05415
C19    H11    0.04193
C20    C21    0.05422
C20    H9    0.04193
C21    C22    0.05422
C21    C23    0.05768
C22    H12    0.04193
C25    C26    0.05422
C25    C27    0.05422
C25    C32    0.05768
C26    C28    0.05415
C26    H14    0.04193
C27    C30    0.05415
C27    H15    0.04193
C28    C29    0.05422
C28    H13    0.04193
C29    C30    0.05422
C29    C31    0.05768
C30    H16    0.04193
C33    C34    0.05422
C33    C35    0.05422
C33    C40    0.05768
C34    C36    0.05415
C34    H18    0.04193
C35    C38    0.05415
C35    H19    0.04193
C36    C37    0.05422
C36    H17    0.04193
C37    C38    0.05422
C37    C39    0.05768
C38    H20    0.04193
C41    C42    0.05422
C41    C43    0.05422
C41    C48    0.05768
C42    C44    0.05415
C42    H22    0.04193
C43    C46    0.05415
C43    H23    0.04193
C44    C45    0.05422
C44    H21    0.04193
C45    C46    0.05422
C45    C47    0.05768
C46    H24    0.04193
C49    C50    0.05422
C49    C51    0.05422
C49    C56    0.05768
C50    C52    0.05415
C50    H26    0.04193
C51    C54    0.05415
C51    H27    0.04193
C52    C53    0.05422
C52    H25    0.04193
C53    C54    0.05422
C53    C55    0.05768
C54    H28    0.04193
C57    C58    0.05422
C57    C59    0.05422
C57    C64    0.05768
C58    C60    0.05415
C58    H30    0.04193
C59    C62    0.05415
C59    H31    0.04193
C60    C61    0.05422
C60    H29    0.04193
C61    C62    0.05422
C61    C63    0.05768
C62    H32    0.04193
C65    C66    0.05422
C65    C67    0.05422
C65    C72    0.05768
C66    C68    0.05415
C66    H34    0.04193
C67    C70    0.05415
C67    H35    0.04193
C68    C69    0.05422
C68    H33    0.04193
C69    C70    0.05422
C69    C71    0.05768
C70    H36    0.04193
C73    C74    0.05422
C73    C75    0.05422
C73    C80    0.05768
C74    C76    0.05415
C74    H38    0.04193
C75    C78    0.05415
C75    H39    0.04193
C76    C77    0.05422
C76    H37    0.04193
C77    C78    0.05422
C77    C79    0.05768
C78    H40    0.04193
C81    C82    0.05422
C81    C83    0.05422
C81    C88    0.05768
C82    C84    0.05415
C82    H42    0.04193
C83    C86    0.05415
C83    H43    0.04193
C84    C85    0.05422
C84    H41    0.04193
C85    C86    0.05422
C85    C87    0.05768
C86    H44    0.04193
C89    C90    0.05422
C89    C91    0.05422
C89    C96    0.05768
C90    C92    0.05415
C90    H46    0.04193
C91    C94    0.05415
C91    H47    0.04193
C92    C93    0.05422
C92    H45    0.04193
C93    C94    0.05422
C93    C95    0.05768
C94    H48    0.04193
C97    C98    0.05422
C97    C99    0.05422
C97    C104    0.05768
C98    C100    0.05415
C98    H50    0.04193
C99    C102    0.05415
C99    H51    0.04193
C100    C101    0.05422
C100    H49    0.04193
C101    C102    0.05422
C101    C103    0.05768
C102    H52    0.04193
C105    C106    0.05422
C105    C107    0.05422
C105    C112    0.05768
C106    C108    0.05415
C106    H54    0.04193
C107    C110    0.05415
C107    H55    0.04193
C108    C109    0.05422
C108    H53    0.04193
C109    C110    0.05422
C109    C111    0.05768
C110    H56    0.04193
C113    C114    0.05422
C113    C115    0.05422
C113    C120    0.05768
C114    C116    0.05415
C114    H58    0.04193
C115    C118    0.05415
C115    H59    0.04193
C116    C117    0.05422
C116    H57    0.04193
C117    C118    0.05422
C117    C119    0.05768
C118    H60    0.04193
C121    C122    0.05422
C121    C123    0.05422
C121    C128    0.05768
C122    C124    0.05415
C122    H62    0.04193
C123    C126    0.05415
C123    H63    0.04193
C124    C125    0.05422
C124    H61    0.04193
C125    C126    0.05422
C125    C127    0.05768
C126    H64    0.04193
C129    C130    0.05422
C129    C131    0.05422
C129    C136    0.05768
C130    C132    0.05415
C130    H66    0.04193
C131    C134    0.05415
C131    H67    0.04193
C132    C133    0.05422
C132    H65    0.04193
C133    C134    0.05422
C133    C135    0.05768
C134    H68    0.04193
C137    C138    0.05422
C137    C139    0.05422
C137    C144    0.05768
C138    C140    0.05415
C138    H70    0.04193
C139    C142    0.05415
C139    H71    0.04193
C140    C141    0.05422
C140    H69    0.04193
C141    C142    0.05422
C141    C143    0.05768
C142    H72    0.04193
C145    C146    0.05422
C145    C147    0.05422
C145    C152    0.05768
C146    C148    0.05415
C146    H74    0.04193
C147    C150    0.05415
C147    H75    0.04193
C148    C149    0.05422
C148    H73    0.04193
C149    C150    0.05422
C149    C151    0.05768
C150    H76    0.04193
C153    C154    0.05422
C153    C155    0.05422
C153    C160    0.05768
C154    C156    0.05415
C154    H78    0.04193
C155    C158    0.05415
C155    H79    0.04193
C156    C157    0.05422
C156    H77    0.04193
C157    C158    0.05422
C157    C159    0.05768
C158    H80    0.04193
C161    C162    0.05422
C161    C163    0.05422
C161    C168    0.05768
C162    C164    0.05415
C162    H82    0.04193
C163    C166    0.05415
C163    H83    0.04193
C164    C165    0.05422
C164    H81    0.04193
C165    C166    0.05422
C165    C167    0.05768
C166    H84    0.04193
C169    C170    0.05422
C169    C171    0.05422
C169    C176    0.05768
C170    C172    0.05415
C170    H86    0.04193
C171    C174    0.05415
C171    H87    0.04193
C172    C173    0.05422
C172    H85    0.04193
C173    C174    0.05422
C173    C175    0.05768
C174    H88    0.04193
C177    C178    0.05422
C177    C179    0.05422
C177    C184    0.05768
C178    C180    0.05415
C178    H90    0.04193
C179    C182    0.05415
C179    H91    0.04193
C180    C181    0.05422
C180    H89    0.04193
C181    C182    0.05422
C181    C183    0.05768
C182    H92    0.04193
C185    C186    0.05422
C185    C187    0.05422
C185    C192    0.05768
C186    C188    0.05415
C186    H94    0.04193
C187    C190    0.05415
C187    H95    0.04193
C188    C189    0.05422
C188    H93    0.04193
C189    C190    0.05422
C189    C191    0.05768
C190    H96    0.04193
