data_new_xtal_PM
_symmetry_space_group_name_H-M    'P1'
_cell_length_a    10.000000
_cell_length_b    10.000000
_cell_length_c    10.000000
_cell_angle_alpha    90.000000
_cell_angle_beta    90.000000
_cell_angle_gamma    90.000000
_symmetry_Int_Tables_number 1

loop_
_symmetry_equiv_pos_as_xyz
'x,y,z'

loop_
_atom_site_label
_atom_site_type_symbol
_atom_site_fract_x
_atom_site_fract_y
_atom_site_fract_z
C1    C    0.633997    0.927987    0.286047
C2    C    0.808417    0.241109    0.815445
O1    O    0.576693    0.988249    0.391966
O2    O    0.865708    0.180814    0.709537
O3    O    0.791934    0.361851    0.810763
O4    O    0.650473    0.807243    0.290692
C3    C    0.596899    0.116991    0.115382
C4    C    0.639482    0.192355    0.003444
C5    C    0.560555    0.298235    0.956728
C6    C    0.476095    0.148688    0.178824
C7    C    0.397983    0.254585    0.131442
C8    C    0.440061    0.329110    0.020773
C9    C    0.675882    0.011211    0.161948
C10    C    0.796322    0.980222    0.098065
C11    C    0.838400    0.054702    0.987443
C12    C    0.760232    0.160546    0.940160
F1    F    0.592122    0.356644    0.871115
H1    H    0.379142    0.410930    0.984616
H2    H    0.442382    0.091761    0.264613
H3    H    0.304672    0.278926    0.180592
C13    C    0.845539    0.052155    0.986153
C14    C    0.802957    0.976793    0.098092
C15    C    0.881893    0.870924    0.144820
C16    C    0.966352    0.020470    0.922723
C17    C    0.044474    0.914585    0.970118
C18    C    0.002396    0.840061    0.080787
C19    C    0.766547    0.157923    0.939575
C20    C    0.646098    0.188901    0.003447
C21    C    0.604021    0.114422    0.114070
C22    C    0.682197    0.008590    0.161364
F2    F    0.850326    0.812516    0.230434
H4    H    0.063322    0.758250    0.116953
H5    H    0.000065    0.077397    0.836934
H6    H    0.137791    0.890253    0.920976

loop_
_geom_bond_atom_site_label_1
_geom_bond_atom_site_label_2
_geom_bond_distance
C1    O1    0.13466
C1    O4    0.12195
C1    C9    0.15518
C1    C22    0.15610
C2    O2    0.13466
C2    O3    0.12195
C2    C12    0.15610
C2    C19    0.15518
C3    C4    0.14150
C3    C6    0.14008
C3    C9    0.13999
C4    C5    0.14008
C4    C12    0.13999
C5    C8    0.13991
C5    F1    0.10834
C6    C7    0.13986
C6    H2    0.10834
C7    C8    0.13990
C7    H3    0.10824
C8    H1    0.10823
C9    C10    0.13981
C10    C11    0.13984
C11    C12    0.13982
C13    C14    0.14150
C13    C16    0.14008
C13    C19    0.13999
C14    C15    0.14008
C14    C22    0.13999
C15    C18    0.13991
C15    F2    0.10834
C16    C17    0.13986
C16    H5    0.10834
C17    C18    0.13990
C17    H6    0.10824
C18    H4    0.10823
C19    C20    0.13981
C20    C21    0.13984
C21    C22    0.13982
