data_new_xtal_PM
_symmetry_space_group_name_H-M    'P1'
_cell_length_a    10.000000
_cell_length_b    10.000000
_cell_length_c    10.000000
_cell_angle_alpha    90.000000
_cell_angle_beta    90.000000
_cell_angle_gamma    90.000000
_symmetry_Int_Tables_number 1

loop_
_symmetry_equiv_pos_as_xyz
'x,y,z'

loop_
_atom_site_label
_atom_site_type_symbol
_atom_site_fract_x
_atom_site_fract_y
_atom_site_fract_z
C1    C    0.633997    0.927987    0.286047
C2    C    0.808417    0.241109    0.815445
C3    C    0.966983    0.017883    0.922607
C4    C    0.885018    0.869955    0.142764
C5    C    0.045254    0.913383    0.969638
C6    C    0.004514    0.839877    0.078909
H1    H    0.863197    0.810306    0.229051
H2    H    0.066965    0.759575    0.116019
H3    H    0.008117    0.072174    0.839994
H4    H    0.139514    0.890476    0.921515
O1    O    0.576693    0.988249    0.391966
O2    O    0.865708    0.180814    0.709537
O3    O    0.791934    0.361851    0.810763
O4    O    0.650473    0.807243    0.290692
C7    C    0.596899    0.116991    0.115382
C8    C    0.639482    0.192355    0.003444
C9    C    0.560555    0.298235    0.956728
C10    C    0.476095    0.148688    0.178824
C11    C    0.397983    0.254585    0.131442
C12    C    0.440061    0.329110    0.020773
C13    C    0.675882    0.011211    0.161948
C14    C    0.796322    0.980222    0.098065
C15    C    0.838400    0.054702    0.987443
C16    C    0.760232    0.160546    0.940160
F1    F    0.592122    0.356644    0.871115
H5    H    0.379142    0.410930    0.984616
H6    H    0.442382    0.091761    0.264613
H7    H    0.304672    0.278926    0.180592

loop_
_geom_bond_atom_site_label_1
_geom_bond_atom_site_label_2
_geom_bond_distance
C1    O1    0.13466
C1    O4    0.12195
C1    C13    0.15518
C2    O2    0.13466
C2    O3    0.12195
C2    C16    0.15610
C3    C5    0.13878
C3    H3    0.10707
C3    C15    0.14864
C4    C6    0.13879
C4    H1    0.10714
C4    C14    0.14840
C5    C6    0.13785
C5    H4    0.10828
C6    H2    0.10829
C7    C8    0.14150
C7    C10    0.14008
C7    C13    0.13999
C8    C9    0.14008
C8    C16    0.13999
C9    C12    0.13991
C9    F1    0.10834
C10    C11    0.13986
C10    H6    0.10834
C11    C12    0.13990
C11    H7    0.10824
C12    H5    0.10823
C13    C14    0.13981
C14    C15    0.13984
C15    C16    0.13982
