data_cof_PM
_symmetry_space_group_name_H-M    'P1'
_cell_length_a    9.994267
_cell_length_b    15.905900
_cell_length_c    25.764600
_cell_angle_alpha    91.487900
_cell_angle_beta    91.035500
_cell_angle_gamma    91.677500
_symmetry_Int_Tables_number 1

loop_
_symmetry_equiv_pos_as_xyz
'x,y,z'

loop_
_atom_site_label
_atom_site_type_symbol
_atom_site_fract_x
_atom_site_fract_y
_atom_site_fract_z
C1    C    0.508308    0.987972    0.960345
C2    C    0.539946    0.911944    0.933687
C3    C    0.536337    0.904450    0.878959
C4    C    0.510069    0.975743    0.849881
C5    C    0.486112    0.054063    0.874326
C6    C    0.479434    0.057935    0.929042
C7    C    0.508279    0.993931    0.016549
C8    C    0.479393    0.922889    0.047427
C9    C    0.486067    0.927012    0.102241
C10    C    0.509920    0.006241    0.127036
C11    C    0.536217    0.078514    0.098345
C12    C    0.539925    0.071142    0.043671
C13    C    0.515577    0.393933    0.739228
C14    C    0.550743    0.545037    0.754850
C15    C    0.526991    0.487813    0.668424
C16    C    0.509479    0.626611    0.741492
C17    C    0.524948    0.696178    0.776157
C18    C    0.582777    0.687562    0.826207
C19    C    0.631098    0.608135    0.839039
C20    C    0.618087    0.539473    0.803681
C21    C    0.457067    0.376483    0.787863
C22    C    0.449279    0.294854    0.807519
C23    C    0.494070    0.225469    0.778059
C24    C    0.542278    0.240496    0.727790
C25    C    0.553251    0.322634    0.709075
C26    C    0.412079    0.463932    0.638036
C27    C    0.408660    0.475495    0.584038
C28    C    0.520112    0.511683    0.558913
C29    C    0.634657    0.536428    0.589216
C30    C    0.638266    0.524080    0.643127
C31    C    0.515035    0.524872    0.505767
C32    C    0.495628    0.143508    0.797479
C33    C    0.589144    0.754069    0.863483
C34    C    0.515682    0.588313    0.237758
C35    C    0.550660    0.438514    0.222631
C36    C    0.527401    0.494866    0.308731
C37    C    0.509340    0.355409    0.235389
C38    C    0.524858    0.286396    0.200974
C39    C    0.582568    0.297166    0.151748
C40    C    0.630835    0.378400    0.139594
C41    C    0.617878    0.446585    0.174756
C42    C    0.456958    0.603583    0.188305
C43    C    0.449058    0.684925    0.168548
C44    C    0.493996    0.755986    0.198632
C45    C    0.542558    0.742738    0.249557
C46    C    0.553483    0.661019    0.268443
C47    C    0.412824    0.514657    0.337583
C48    C    0.409953    0.503262    0.391568
C49    C    0.521664    0.471361    0.418232
C50    C    0.635769    0.450550    0.389441
C51    C    0.638842    0.462751    0.335545
C52    C    0.517620    0.458490    0.471338
C53    C    0.495303    0.838032    0.179263
C54    C    0.588969    0.230875    0.114581
H1    H    0.564634    0.860353    0.954065
H2    H    0.455940    0.114217    0.946070
H3    H    0.510251    0.970144    0.810282
H4    H    0.455906    0.865727    0.030056
H5    H    0.510020    0.011857    0.166638
H6    H    0.564606    0.123656    0.023655
H7    H    0.459946    0.635545    0.707097
H8    H    0.677043    0.599428    0.874268
H9    H    0.659786    0.484420    0.814257
H10    H    0.487733    0.752366    0.765100
H11    H    0.596492    0.330032    0.673760
H12    H    0.418202    0.423841    0.809934
H13    H    0.409556    0.286733    0.843442
H14    H    0.576579    0.192143    0.705134
H15    H    0.329767    0.438096    0.655301
H16    H    0.716905    0.562967    0.572199
H17    H    0.723012    0.541559    0.664025
H18    H    0.323610    0.457846    0.563294
H19    H    0.553972    0.579576    0.494400
H20    H    0.527971    0.096444    0.773489
H21    H    0.620695    0.742992    0.900613
H22    H    0.460095    0.344631    0.269126
H23    H    0.676727    0.388813    0.105023
H24    H    0.659577    0.503191    0.164773
H25    H    0.487743    0.228808    0.211518
H26    H    0.596873    0.655223    0.304361
H27    H    0.417953    0.554777    0.165696
H28    H    0.409092    0.691566    0.132084
H29    H    0.576750    0.792391    0.272723
H30    H    0.330406    0.537453    0.319203
H31    H    0.718237    0.427205    0.407576
H32    H    0.723393    0.448339    0.315790
H33    H    0.325193    0.517985    0.411177
H34    H    0.557585    0.405853    0.483851
H35    H    0.528052    0.886224    0.203707
H36    H    0.620500    0.243123    0.077908
N1    N    0.553231    0.151277    0.126284
N2    N    0.476400    0.853868    0.128220
N3    N    0.476610    0.126877    0.848228
N4    N    0.553392    0.832332    0.851268
N5    N    0.530865    0.475411    0.721720
N6    N    0.530934    0.507397    0.255483
