data_new_xtal_PM
_symmetry_space_group_name_H-M    'P1'
_cell_length_a    20.000000
_cell_length_b    20.000000
_cell_length_c    20.000000
_cell_angle_alpha    90.000000
_cell_angle_beta    90.000000
_cell_angle_gamma    90.000000
_symmetry_Int_Tables_number 1

loop_
_symmetry_equiv_pos_as_xyz
'x,y,z'

loop_
_atom_site_label
_atom_site_type_symbol
_atom_site_fract_x
_atom_site_fract_y
_atom_site_fract_z
C1    C    0.406188    0.441362    0.582056
C2    C    0.370891    0.418750    0.525130
C3    C    0.426605    0.393496    0.629847
C4    C    0.410977    0.325878    0.621610
C5    C    0.355620    0.350983    0.517293
C6    C    0.375411    0.304683    0.565522
H1    H    0.363509    0.252265    0.559227
H2    H    0.426596    0.289834    0.658841
H3    H    0.355853    0.452787    0.486021
H4    H    0.328599    0.334323    0.473456
H5    H    0.454273    0.408442    0.673907
C7    C    0.519857    0.682439    0.485626
C8    C    0.494789    0.591804    0.652170
C9    C    0.525929    0.626090    0.593746
O1    O    0.584759    0.642386    0.596913
H6    H    0.532638    0.585834    0.692416
H7    H    0.452973    0.622208    0.672595
H8    H    0.573432    0.694360    0.493831
H9    H    0.492786    0.730633    0.480007
H10    H    0.516288    0.654288    0.437864
C10    C    0.382629    0.674185    0.491825
C11    C    0.420190    0.628565    0.530064
C12    C    0.314889    0.664025    0.479710
C13    C    0.388240    0.569165    0.554614
C14    C    0.319225    0.560790    0.541625
C15    C    0.283179    0.607745    0.504960
C16    C    0.424395    0.513885    0.591759
H11    H    0.406304    0.718615    0.471860
H12    H    0.286854    0.700150    0.450745
H13    H    0.292720    0.517504    0.560340
N1    N    0.489520    0.643405    0.539239
N2    N    0.471595    0.526520    0.633924
Cl1    Cl    0.197429    0.595446    0.490099

loop_
_geom_bond_atom_site_label_1
_geom_bond_atom_site_label_2
_geom_bond_distance
C1    C2    0.07070
C1    C3    0.07065
C1    C16    0.07540
C2    C5    0.06991
C2    H3    0.05398
C3    C4    0.06989
C3    H5    0.05413
C4    C6    0.06971
C4    H2    0.05412
C5    C6    0.06972
C5    H4    0.05412
C6    H1    0.05412
C7    H8    0.05550
C7    H9    0.05556
C7    H10    0.05556
C7    N1    0.07293
C8    C9    0.07456
C8    H6    0.05557
C8    H7    0.05559
C8    N2    0.07164
C9    O1    0.06113
C9    N1    0.06780
C10    C11    0.07039
C10    C12    0.06956
C10    H11    0.05416
C11    C13    0.07178
C11    N1    0.07149
C12    C15    0.06936
C12    H12    0.05413
C13    C14    0.07072
C13    C16    0.07578
C14    C15    0.06963
C14    H13    0.05410
C15    Cl1    0.08789
C16    N2    0.06454
