data_RUBTAK01_clean_h_PM
_symmetry_space_group_name_H-M    'P1'
_cell_length_a    29.634800
_cell_length_b    29.634800
_cell_length_c    29.634800
_cell_angle_alpha    60.000000
_cell_angle_beta    60.000000
_cell_angle_gamma    60.000000
_symmetry_Int_Tables_number 1

loop_
_symmetry_equiv_pos_as_xyz
'x,y,z'

loop_
_atom_site_label
_atom_site_type_symbol
_atom_site_fract_x
_atom_site_fract_y
_atom_site_fract_z
Zr1    Zr    0.438150    0.438150    0.061850
Zr2    Zr    0.061850    0.061850    0.438150
Zr3    Zr    0.438150    0.061850    0.061850
Zr4    Zr    0.061850    0.438150    0.438150
Zr5    Zr    0.438150    0.061850    0.438150
Zr6    Zr    0.061850    0.438150    0.061850
C1    C    0.276150    0.038750    0.223850
C2    C    0.038750    0.276150    0.461250
C3    C    0.223850    0.461250    0.276150
C4    C    0.461250    0.223850    0.038750
C5    C    0.276150    0.223850    0.461250
C6    C    0.038750    0.461250    0.223850
C7    C    0.223850    0.276150    0.038750
C8    C    0.461250    0.038750    0.276150
C9    C    0.276150    0.461250    0.038750
C10    C    0.038750    0.223850    0.276150
C11    C    0.223850    0.038750    0.461250
C12    C    0.461250    0.276150    0.223850
C13    C    0.461250    0.223850    0.276150
C14    C    0.223850    0.461250    0.038750
C15    C    0.038750    0.276150    0.223850
C16    C    0.276150    0.038750    0.461250
C17    C    0.276150    0.223850    0.038750
C18    C    0.038750    0.461250    0.276150
C19    C    0.223850    0.276150    0.461250
C20    C    0.461250    0.038750    0.223850
C21    C    0.038750    0.223850    0.461250
C22    C    0.276150    0.461250    0.223850
C23    C    0.461250    0.276150    0.038750
C24    C    0.223850    0.038750    0.276150
C25    C    0.343700    0.000000    0.156300
C26    C    0.296700    0.000000    0.203300
C27    C    0.000000    0.343700    0.000000
C28    C    0.000000    0.296700    0.000000
C29    C    0.156300    0.000000    0.343700
C30    C    0.203300    0.000000    0.296700
C31    C    0.000000    0.156300    0.000000
C32    C    0.000000    0.203300    0.000000
C33    C    0.343700    0.156300    0.000000
C34    C    0.296700    0.203300    0.000000
C35    C    0.000000    0.000000    0.156300
C36    C    0.000000    0.000000    0.203300
C37    C    0.156300    0.343700    0.000000
C38    C    0.203300    0.296700    0.000000
C39    C    0.000000    0.000000    0.343700
C40    C    0.000000    0.000000    0.296700
C41    C    0.343700    0.000000    0.000000
C42    C    0.296700    0.000000    0.000000
C43    C    0.000000    0.156300    0.343700
C44    C    0.000000    0.203300    0.296700
C45    C    0.156300    0.000000    0.000000
C46    C    0.203300    0.000000    0.000000
C47    C    0.000000    0.343700    0.156300
C48    C    0.000000    0.296700    0.203300
O1    O    0.393200    0.035600    0.035600
O2    O    0.035600    0.393200    0.035600
O3    O    0.035600    0.035600    0.393200
O4    O    0.035600    0.035600    0.035600
O5    O    0.464400    0.106800    0.464400
O6    O    0.106800    0.464400    0.464400
O7    O    0.464400    0.464400    0.106800
O8    O    0.464400    0.464400    0.464400
O9    O    0.363450    0.462250    0.136550
O10    O    0.462250    0.363450    0.037750
O11    O    0.136550    0.037750    0.363450
O12    O    0.037750    0.136550    0.462250
O13    O    0.363450    0.136550    0.037750
O14    O    0.462250    0.037750    0.136550
O15    O    0.136550    0.363450    0.462250
O16    O    0.037750    0.462250    0.363450
O17    O    0.363450    0.037750    0.462250
O18    O    0.462250    0.136550    0.363450
O19    O    0.136550    0.462250    0.037750
O20    O    0.037750    0.363450    0.136550
O21    O    0.037750    0.136550    0.363450
O22    O    0.136550    0.037750    0.462250
O23    O    0.462250    0.363450    0.136550
O24    O    0.363450    0.462250    0.037750
O25    O    0.363450    0.136550    0.462250
O26    O    0.462250    0.037750    0.363450
O27    O    0.136550    0.363450    0.037750
O28    O    0.037750    0.462250    0.136550
O29    O    0.462250    0.136550    0.037750
O30    O    0.363450    0.037750    0.136550
O31    O    0.037750    0.363450    0.462250
O32    O    0.136550    0.462250    0.363450
H1    H    0.295385    0.072065    0.204615
H2    H    0.072065    0.295385    0.427935
H3    H    0.204615    0.427935    0.295385
H4    H    0.427935    0.204615    0.072065
H5    H    0.295385    0.204615    0.427935
H6    H    0.072065    0.427935    0.204615
H7    H    0.204615    0.295385    0.072065
H8    H    0.427935    0.072065    0.295385
H9    H    0.295385    0.427935    0.072065
H10    H    0.072065    0.204615    0.295385
H11    H    0.204615    0.072065    0.427935
H12    H    0.427935    0.295385    0.204615
H13    H    0.427935    0.204615    0.295385
H14    H    0.204615    0.427935    0.072065
H15    H    0.072065    0.295385    0.204615
H16    H    0.295385    0.072065    0.427935
H17    H    0.295385    0.204615    0.072065
H18    H    0.072065    0.427935    0.295385
H19    H    0.204615    0.295385    0.427935
H20    H    0.427935    0.072065    0.204615
H21    H    0.072065    0.204615    0.427935
H22    H    0.295385    0.427935    0.204615
H23    H    0.427935    0.295385    0.072065
H24    H    0.204615    0.072065    0.295385
Zr7    Zr    0.438150    0.438150    0.561850
Zr8    Zr    0.061850    0.061850    0.938150
Zr9    Zr    0.438150    0.061850    0.561850
Zr10    Zr    0.061850    0.438150    0.938150
Zr11    Zr    0.438150    0.061850    0.938150
Zr12    Zr    0.061850    0.438150    0.561850
C49    C    0.276150    0.038750    0.723850
C50    C    0.038750    0.276150    0.961250
C51    C    0.223850    0.461250    0.776150
C52    C    0.461250    0.223850    0.538750
C53    C    0.276150    0.223850    0.961250
C54    C    0.038750    0.461250    0.723850
C55    C    0.223850    0.276150    0.538750
C56    C    0.461250    0.038750    0.776150
C57    C    0.276150    0.461250    0.538750
C58    C    0.038750    0.223850    0.776150
C59    C    0.223850    0.038750    0.961250
C60    C    0.461250    0.276150    0.723850
C61    C    0.461250    0.223850    0.776150
C62    C    0.223850    0.461250    0.538750
C63    C    0.038750    0.276150    0.723850
C64    C    0.276150    0.038750    0.961250
C65    C    0.276150    0.223850    0.538750
C66    C    0.038750    0.461250    0.776150
C67    C    0.223850    0.276150    0.961250
C68    C    0.461250    0.038750    0.723850
C69    C    0.038750    0.223850    0.961250
C70    C    0.276150    0.461250    0.723850
C71    C    0.461250    0.276150    0.538750
C72    C    0.223850    0.038750    0.776150
C73    C    0.343700    0.000000    0.656300
C74    C    0.296700    0.000000    0.703300
C75    C    0.000000    0.343700    0.500000
C76    C    0.000000    0.296700    0.500000
C77    C    0.156300    0.000000    0.843700
C78    C    0.203300    0.000000    0.796700
C79    C    0.000000    0.156300    0.500000
C80    C    0.000000    0.203300    0.500000
C81    C    0.343700    0.156300    0.500000
C82    C    0.296700    0.203300    0.500000
C83    C    0.000000    0.000000    0.656300
C84    C    0.000000    0.000000    0.703300
C85    C    0.156300    0.343700    0.500000
C86    C    0.203300    0.296700    0.500000
C87    C    0.000000    0.000000    0.843700
C88    C    0.000000    0.000000    0.796700
C89    C    0.343700    0.000000    0.500000
C90    C    0.296700    0.000000    0.500000
C91    C    0.000000    0.156300    0.843700
C92    C    0.000000    0.203300    0.796700
C93    C    0.156300    0.000000    0.500000
C94    C    0.203300    0.000000    0.500000
C95    C    0.000000    0.343700    0.656300
C96    C    0.000000    0.296700    0.703300
O33    O    0.393200    0.035600    0.535600
O34    O    0.035600    0.393200    0.535600
O35    O    0.035600    0.035600    0.893200
O36    O    0.035600    0.035600    0.535600
O37    O    0.464400    0.106800    0.964400
O38    O    0.106800    0.464400    0.964400
O39    O    0.464400    0.464400    0.606800
O40    O    0.464400    0.464400    0.964400
O41    O    0.363450    0.462250    0.636550
O42    O    0.462250    0.363450    0.537750
O43    O    0.136550    0.037750    0.863450
O44    O    0.037750    0.136550    0.962250
O45    O    0.363450    0.136550    0.537750
O46    O    0.462250    0.037750    0.636550
O47    O    0.136550    0.363450    0.962250
O48    O    0.037750    0.462250    0.863450
O49    O    0.363450    0.037750    0.962250
O50    O    0.462250    0.136550    0.863450
O51    O    0.136550    0.462250    0.537750
O52    O    0.037750    0.363450    0.636550
O53    O    0.037750    0.136550    0.863450
O54    O    0.136550    0.037750    0.962250
O55    O    0.462250    0.363450    0.636550
O56    O    0.363450    0.462250    0.537750
O57    O    0.363450    0.136550    0.962250
O58    O    0.462250    0.037750    0.863450
O59    O    0.136550    0.363450    0.537750
O60    O    0.037750    0.462250    0.636550
O61    O    0.462250    0.136550    0.537750
O62    O    0.363450    0.037750    0.636550
O63    O    0.037750    0.363450    0.962250
O64    O    0.136550    0.462250    0.863450
H25    H    0.295385    0.072065    0.704615
H26    H    0.072065    0.295385    0.927935
H27    H    0.204615    0.427935    0.795385
H28    H    0.427935    0.204615    0.572065
H29    H    0.295385    0.204615    0.927935
H30    H    0.072065    0.427935    0.704615
H31    H    0.204615    0.295385    0.572065
H32    H    0.427935    0.072065    0.795385
H33    H    0.295385    0.427935    0.572065
H34    H    0.072065    0.204615    0.795385
H35    H    0.204615    0.072065    0.927935
H36    H    0.427935    0.295385    0.704615
H37    H    0.427935    0.204615    0.795385
H38    H    0.204615    0.427935    0.572065
H39    H    0.072065    0.295385    0.704615
H40    H    0.295385    0.072065    0.927935
H41    H    0.295385    0.204615    0.572065
H42    H    0.072065    0.427935    0.795385
H43    H    0.204615    0.295385    0.927935
H44    H    0.427935    0.072065    0.704615
H45    H    0.072065    0.204615    0.927935
H46    H    0.295385    0.427935    0.704615
H47    H    0.427935    0.295385    0.572065
H48    H    0.204615    0.072065    0.795385
Zr13    Zr    0.438150    0.938150    0.061850
Zr14    Zr    0.061850    0.561850    0.438150
Zr15    Zr    0.438150    0.561850    0.061850
Zr16    Zr    0.061850    0.938150    0.438150
Zr17    Zr    0.438150    0.561850    0.438150
Zr18    Zr    0.061850    0.938150    0.061850
C97    C    0.276150    0.538750    0.223850
C98    C    0.038750    0.776150    0.461250
C99    C    0.223850    0.961250    0.276150
C100    C    0.461250    0.723850    0.038750
C101    C    0.276150    0.723850    0.461250
C102    C    0.038750    0.961250    0.223850
C103    C    0.223850    0.776150    0.038750
C104    C    0.461250    0.538750    0.276150
C105    C    0.276150    0.961250    0.038750
C106    C    0.038750    0.723850    0.276150
C107    C    0.223850    0.538750    0.461250
C108    C    0.461250    0.776150    0.223850
C109    C    0.461250    0.723850    0.276150
C110    C    0.223850    0.961250    0.038750
C111    C    0.038750    0.776150    0.223850
C112    C    0.276150    0.538750    0.461250
C113    C    0.276150    0.723850    0.038750
C114    C    0.038750    0.961250    0.276150
C115    C    0.223850    0.776150    0.461250
C116    C    0.461250    0.538750    0.223850
C117    C    0.038750    0.723850    0.461250
C118    C    0.276150    0.961250    0.223850
C119    C    0.461250    0.776150    0.038750
C120    C    0.223850    0.538750    0.276150
C121    C    0.343700    0.500000    0.156300
C122    C    0.296700    0.500000    0.203300
C123    C    0.000000    0.843700    0.000000
C124    C    0.000000    0.796700    0.000000
C125    C    0.156300    0.500000    0.343700
C126    C    0.203300    0.500000    0.296700
C127    C    0.000000    0.656300    0.000000
C128    C    0.000000    0.703300    0.000000
C129    C    0.343700    0.656300    0.000000
C130    C    0.296700    0.703300    0.000000
C131    C    0.000000    0.500000    0.156300
C132    C    0.000000    0.500000    0.203300
C133    C    0.156300    0.843700    0.000000
C134    C    0.203300    0.796700    0.000000
C135    C    0.000000    0.500000    0.343700
C136    C    0.000000    0.500000    0.296700
C137    C    0.343700    0.500000    0.000000
C138    C    0.296700    0.500000    0.000000
C139    C    0.000000    0.656300    0.343700
C140    C    0.000000    0.703300    0.296700
C141    C    0.156300    0.500000    0.000000
C142    C    0.203300    0.500000    0.000000
C143    C    0.000000    0.843700    0.156300
C144    C    0.000000    0.796700    0.203300
O65    O    0.393200    0.535600    0.035600
O66    O    0.035600    0.893200    0.035600
O67    O    0.035600    0.535600    0.393200
O68    O    0.035600    0.535600    0.035600
O69    O    0.464400    0.606800    0.464400
O70    O    0.106800    0.964400    0.464400
O71    O    0.464400    0.964400    0.106800
O72    O    0.464400    0.964400    0.464400
O73    O    0.363450    0.962250    0.136550
O74    O    0.462250    0.863450    0.037750
O75    O    0.136550    0.537750    0.363450
O76    O    0.037750    0.636550    0.462250
O77    O    0.363450    0.636550    0.037750
O78    O    0.462250    0.537750    0.136550
O79    O    0.136550    0.863450    0.462250
O80    O    0.037750    0.962250    0.363450
O81    O    0.363450    0.537750    0.462250
O82    O    0.462250    0.636550    0.363450
O83    O    0.136550    0.962250    0.037750
O84    O    0.037750    0.863450    0.136550
O85    O    0.037750    0.636550    0.363450
O86    O    0.136550    0.537750    0.462250
O87    O    0.462250    0.863450    0.136550
O88    O    0.363450    0.962250    0.037750
O89    O    0.363450    0.636550    0.462250
O90    O    0.462250    0.537750    0.363450
O91    O    0.136550    0.863450    0.037750
O92    O    0.037750    0.962250    0.136550
O93    O    0.462250    0.636550    0.037750
O94    O    0.363450    0.537750    0.136550
O95    O    0.037750    0.863450    0.462250
O96    O    0.136550    0.962250    0.363450
H49    H    0.295385    0.572065    0.204615
H50    H    0.072065    0.795385    0.427935
H51    H    0.204615    0.927935    0.295385
H52    H    0.427935    0.704615    0.072065
H53    H    0.295385    0.704615    0.427935
H54    H    0.072065    0.927935    0.204615
H55    H    0.204615    0.795385    0.072065
H56    H    0.427935    0.572065    0.295385
H57    H    0.295385    0.927935    0.072065
H58    H    0.072065    0.704615    0.295385
H59    H    0.204615    0.572065    0.427935
H60    H    0.427935    0.795385    0.204615
H61    H    0.427935    0.704615    0.295385
H62    H    0.204615    0.927935    0.072065
H63    H    0.072065    0.795385    0.204615
H64    H    0.295385    0.572065    0.427935
H65    H    0.295385    0.704615    0.072065
H66    H    0.072065    0.927935    0.295385
H67    H    0.204615    0.795385    0.427935
H68    H    0.427935    0.572065    0.204615
H69    H    0.072065    0.704615    0.427935
H70    H    0.295385    0.927935    0.204615
H71    H    0.427935    0.795385    0.072065
H72    H    0.204615    0.572065    0.295385
Zr19    Zr    0.438150    0.938150    0.561850
Zr20    Zr    0.061850    0.561850    0.938150
Zr21    Zr    0.438150    0.561850    0.561850
Zr22    Zr    0.061850    0.938150    0.938150
Zr23    Zr    0.438150    0.561850    0.938150
Zr24    Zr    0.061850    0.938150    0.561850
C145    C    0.276150    0.538750    0.723850
C146    C    0.038750    0.776150    0.961250
C147    C    0.223850    0.961250    0.776150
C148    C    0.461250    0.723850    0.538750
C149    C    0.276150    0.723850    0.961250
C150    C    0.038750    0.961250    0.723850
C151    C    0.223850    0.776150    0.538750
C152    C    0.461250    0.538750    0.776150
C153    C    0.276150    0.961250    0.538750
C154    C    0.038750    0.723850    0.776150
C155    C    0.223850    0.538750    0.961250
C156    C    0.461250    0.776150    0.723850
C157    C    0.461250    0.723850    0.776150
C158    C    0.223850    0.961250    0.538750
C159    C    0.038750    0.776150    0.723850
C160    C    0.276150    0.538750    0.961250
C161    C    0.276150    0.723850    0.538750
C162    C    0.038750    0.961250    0.776150
C163    C    0.223850    0.776150    0.961250
C164    C    0.461250    0.538750    0.723850
C165    C    0.038750    0.723850    0.961250
C166    C    0.276150    0.961250    0.723850
C167    C    0.461250    0.776150    0.538750
C168    C    0.223850    0.538750    0.776150
C169    C    0.343700    0.500000    0.656300
C170    C    0.296700    0.500000    0.703300
C171    C    0.000000    0.843700    0.500000
C172    C    0.000000    0.796700    0.500000
C173    C    0.156300    0.500000    0.843700
C174    C    0.203300    0.500000    0.796700
C175    C    0.000000    0.656300    0.500000
C176    C    0.000000    0.703300    0.500000
C177    C    0.343700    0.656300    0.500000
C178    C    0.296700    0.703300    0.500000
C179    C    0.000000    0.500000    0.656300
C180    C    0.000000    0.500000    0.703300
C181    C    0.156300    0.843700    0.500000
C182    C    0.203300    0.796700    0.500000
C183    C    0.000000    0.500000    0.843700
C184    C    0.000000    0.500000    0.796700
C185    C    0.343700    0.500000    0.500000
C186    C    0.296700    0.500000    0.500000
C187    C    0.000000    0.656300    0.843700
C188    C    0.000000    0.703300    0.796700
C189    C    0.156300    0.500000    0.500000
C190    C    0.203300    0.500000    0.500000
C191    C    0.000000    0.843700    0.656300
C192    C    0.000000    0.796700    0.703300
O97    O    0.393200    0.535600    0.535600
O98    O    0.035600    0.893200    0.535600
O99    O    0.035600    0.535600    0.893200
O100    O    0.035600    0.535600    0.535600
O101    O    0.464400    0.606800    0.964400
O102    O    0.106800    0.964400    0.964400
O103    O    0.464400    0.964400    0.606800
O104    O    0.464400    0.964400    0.964400
O105    O    0.363450    0.962250    0.636550
O106    O    0.462250    0.863450    0.537750
O107    O    0.136550    0.537750    0.863450
O108    O    0.037750    0.636550    0.962250
O109    O    0.363450    0.636550    0.537750
O110    O    0.462250    0.537750    0.636550
O111    O    0.136550    0.863450    0.962250
O112    O    0.037750    0.962250    0.863450
O113    O    0.363450    0.537750    0.962250
O114    O    0.462250    0.636550    0.863450
O115    O    0.136550    0.962250    0.537750
O116    O    0.037750    0.863450    0.636550
O117    O    0.037750    0.636550    0.863450
O118    O    0.136550    0.537750    0.962250
O119    O    0.462250    0.863450    0.636550
O120    O    0.363450    0.962250    0.537750
O121    O    0.363450    0.636550    0.962250
O122    O    0.462250    0.537750    0.863450
O123    O    0.136550    0.863450    0.537750
O124    O    0.037750    0.962250    0.636550
O125    O    0.462250    0.636550    0.537750
O126    O    0.363450    0.537750    0.636550
O127    O    0.037750    0.863450    0.962250
O128    O    0.136550    0.962250    0.863450
H73    H    0.295385    0.572065    0.704615
H74    H    0.072065    0.795385    0.927935
H75    H    0.204615    0.927935    0.795385
H76    H    0.427935    0.704615    0.572065
H77    H    0.295385    0.704615    0.927935
H78    H    0.072065    0.927935    0.704615
H79    H    0.204615    0.795385    0.572065
H80    H    0.427935    0.572065    0.795385
H81    H    0.295385    0.927935    0.572065
H82    H    0.072065    0.704615    0.795385
H83    H    0.204615    0.572065    0.927935
H84    H    0.427935    0.795385    0.704615
H85    H    0.427935    0.704615    0.795385
H86    H    0.204615    0.927935    0.572065
H87    H    0.072065    0.795385    0.704615
H88    H    0.295385    0.572065    0.927935
H89    H    0.295385    0.704615    0.572065
H90    H    0.072065    0.927935    0.795385
H91    H    0.204615    0.795385    0.927935
H92    H    0.427935    0.572065    0.704615
H93    H    0.072065    0.704615    0.927935
H94    H    0.295385    0.927935    0.704615
H95    H    0.427935    0.795385    0.572065
H96    H    0.204615    0.572065    0.795385
Zr25    Zr    0.938150    0.438150    0.061850
Zr26    Zr    0.561850    0.061850    0.438150
Zr27    Zr    0.938150    0.061850    0.061850
Zr28    Zr    0.561850    0.438150    0.438150
Zr29    Zr    0.938150    0.061850    0.438150
Zr30    Zr    0.561850    0.438150    0.061850
C193    C    0.776150    0.038750    0.223850
C194    C    0.538750    0.276150    0.461250
C195    C    0.723850    0.461250    0.276150
C196    C    0.961250    0.223850    0.038750
C197    C    0.776150    0.223850    0.461250
C198    C    0.538750    0.461250    0.223850
C199    C    0.723850    0.276150    0.038750
C200    C    0.961250    0.038750    0.276150
C201    C    0.776150    0.461250    0.038750
C202    C    0.538750    0.223850    0.276150
C203    C    0.723850    0.038750    0.461250
C204    C    0.961250    0.276150    0.223850
C205    C    0.961250    0.223850    0.276150
C206    C    0.723850    0.461250    0.038750
C207    C    0.538750    0.276150    0.223850
C208    C    0.776150    0.038750    0.461250
C209    C    0.776150    0.223850    0.038750
C210    C    0.538750    0.461250    0.276150
C211    C    0.723850    0.276150    0.461250
C212    C    0.961250    0.038750    0.223850
C213    C    0.538750    0.223850    0.461250
C214    C    0.776150    0.461250    0.223850
C215    C    0.961250    0.276150    0.038750
C216    C    0.723850    0.038750    0.276150
C217    C    0.843700    0.000000    0.156300
C218    C    0.796700    0.000000    0.203300
C219    C    0.500000    0.343700    0.000000
C220    C    0.500000    0.296700    0.000000
C221    C    0.656300    0.000000    0.343700
C222    C    0.703300    0.000000    0.296700
C223    C    0.500000    0.156300    0.000000
C224    C    0.500000    0.203300    0.000000
C225    C    0.843700    0.156300    0.000000
C226    C    0.796700    0.203300    0.000000
C227    C    0.500000    0.000000    0.156300
C228    C    0.500000    0.000000    0.203300
C229    C    0.656300    0.343700    0.000000
C230    C    0.703300    0.296700    0.000000
C231    C    0.500000    0.000000    0.343700
C232    C    0.500000    0.000000    0.296700
C233    C    0.843700    0.000000    0.000000
C234    C    0.796700    0.000000    0.000000
C235    C    0.500000    0.156300    0.343700
C236    C    0.500000    0.203300    0.296700
C237    C    0.656300    0.000000    0.000000
C238    C    0.703300    0.000000    0.000000
C239    C    0.500000    0.343700    0.156300
C240    C    0.500000    0.296700    0.203300
O129    O    0.893200    0.035600    0.035600
O130    O    0.535600    0.393200    0.035600
O131    O    0.535600    0.035600    0.393200
O132    O    0.535600    0.035600    0.035600
O133    O    0.964400    0.106800    0.464400
O134    O    0.606800    0.464400    0.464400
O135    O    0.964400    0.464400    0.106800
O136    O    0.964400    0.464400    0.464400
O137    O    0.863450    0.462250    0.136550
O138    O    0.962250    0.363450    0.037750
O139    O    0.636550    0.037750    0.363450
O140    O    0.537750    0.136550    0.462250
O141    O    0.863450    0.136550    0.037750
O142    O    0.962250    0.037750    0.136550
O143    O    0.636550    0.363450    0.462250
O144    O    0.537750    0.462250    0.363450
O145    O    0.863450    0.037750    0.462250
O146    O    0.962250    0.136550    0.363450
O147    O    0.636550    0.462250    0.037750
O148    O    0.537750    0.363450    0.136550
O149    O    0.537750    0.136550    0.363450
O150    O    0.636550    0.037750    0.462250
O151    O    0.962250    0.363450    0.136550
O152    O    0.863450    0.462250    0.037750
O153    O    0.863450    0.136550    0.462250
O154    O    0.962250    0.037750    0.363450
O155    O    0.636550    0.363450    0.037750
O156    O    0.537750    0.462250    0.136550
O157    O    0.962250    0.136550    0.037750
O158    O    0.863450    0.037750    0.136550
O159    O    0.537750    0.363450    0.462250
O160    O    0.636550    0.462250    0.363450
H97    H    0.795385    0.072065    0.204615
H98    H    0.572065    0.295385    0.427935
H99    H    0.704615    0.427935    0.295385
H100    H    0.927935    0.204615    0.072065
H101    H    0.795385    0.204615    0.427935
H102    H    0.572065    0.427935    0.204615
H103    H    0.704615    0.295385    0.072065
H104    H    0.927935    0.072065    0.295385
H105    H    0.795385    0.427935    0.072065
H106    H    0.572065    0.204615    0.295385
H107    H    0.704615    0.072065    0.427935
H108    H    0.927935    0.295385    0.204615
H109    H    0.927935    0.204615    0.295385
H110    H    0.704615    0.427935    0.072065
H111    H    0.572065    0.295385    0.204615
H112    H    0.795385    0.072065    0.427935
H113    H    0.795385    0.204615    0.072065
H114    H    0.572065    0.427935    0.295385
H115    H    0.704615    0.295385    0.427935
H116    H    0.927935    0.072065    0.204615
H117    H    0.572065    0.204615    0.427935
H118    H    0.795385    0.427935    0.204615
H119    H    0.927935    0.295385    0.072065
H120    H    0.704615    0.072065    0.295385
Zr31    Zr    0.938150    0.438150    0.561850
Zr32    Zr    0.561850    0.061850    0.938150
Zr33    Zr    0.938150    0.061850    0.561850
Zr34    Zr    0.561850    0.438150    0.938150
Zr35    Zr    0.938150    0.061850    0.938150
Zr36    Zr    0.561850    0.438150    0.561850
C241    C    0.776150    0.038750    0.723850
C242    C    0.538750    0.276150    0.961250
C243    C    0.723850    0.461250    0.776150
C244    C    0.961250    0.223850    0.538750
C245    C    0.776150    0.223850    0.961250
C246    C    0.538750    0.461250    0.723850
C247    C    0.723850    0.276150    0.538750
C248    C    0.961250    0.038750    0.776150
C249    C    0.776150    0.461250    0.538750
C250    C    0.538750    0.223850    0.776150
C251    C    0.723850    0.038750    0.961250
C252    C    0.961250    0.276150    0.723850
C253    C    0.961250    0.223850    0.776150
C254    C    0.723850    0.461250    0.538750
C255    C    0.538750    0.276150    0.723850
C256    C    0.776150    0.038750    0.961250
C257    C    0.776150    0.223850    0.538750
C258    C    0.538750    0.461250    0.776150
C259    C    0.723850    0.276150    0.961250
C260    C    0.961250    0.038750    0.723850
C261    C    0.538750    0.223850    0.961250
C262    C    0.776150    0.461250    0.723850
C263    C    0.961250    0.276150    0.538750
C264    C    0.723850    0.038750    0.776150
C265    C    0.843700    0.000000    0.656300
C266    C    0.796700    0.000000    0.703300
C267    C    0.500000    0.343700    0.500000
C268    C    0.500000    0.296700    0.500000
C269    C    0.656300    0.000000    0.843700
C270    C    0.703300    0.000000    0.796700
C271    C    0.500000    0.156300    0.500000
C272    C    0.500000    0.203300    0.500000
C273    C    0.843700    0.156300    0.500000
C274    C    0.796700    0.203300    0.500000
C275    C    0.500000    0.000000    0.656300
C276    C    0.500000    0.000000    0.703300
C277    C    0.656300    0.343700    0.500000
C278    C    0.703300    0.296700    0.500000
C279    C    0.500000    0.000000    0.843700
C280    C    0.500000    0.000000    0.796700
C281    C    0.843700    0.000000    0.500000
C282    C    0.796700    0.000000    0.500000
C283    C    0.500000    0.156300    0.843700
C284    C    0.500000    0.203300    0.796700
C285    C    0.656300    0.000000    0.500000
C286    C    0.703300    0.000000    0.500000
C287    C    0.500000    0.343700    0.656300
C288    C    0.500000    0.296700    0.703300
O161    O    0.893200    0.035600    0.535600
O162    O    0.535600    0.393200    0.535600
O163    O    0.535600    0.035600    0.893200
O164    O    0.535600    0.035600    0.535600
O165    O    0.964400    0.106800    0.964400
O166    O    0.606800    0.464400    0.964400
O167    O    0.964400    0.464400    0.606800
O168    O    0.964400    0.464400    0.964400
O169    O    0.863450    0.462250    0.636550
O170    O    0.962250    0.363450    0.537750
O171    O    0.636550    0.037750    0.863450
O172    O    0.537750    0.136550    0.962250
O173    O    0.863450    0.136550    0.537750
O174    O    0.962250    0.037750    0.636550
O175    O    0.636550    0.363450    0.962250
O176    O    0.537750    0.462250    0.863450
O177    O    0.863450    0.037750    0.962250
O178    O    0.962250    0.136550    0.863450
O179    O    0.636550    0.462250    0.537750
O180    O    0.537750    0.363450    0.636550
O181    O    0.537750    0.136550    0.863450
O182    O    0.636550    0.037750    0.962250
O183    O    0.962250    0.363450    0.636550
O184    O    0.863450    0.462250    0.537750
O185    O    0.863450    0.136550    0.962250
O186    O    0.962250    0.037750    0.863450
O187    O    0.636550    0.363450    0.537750
O188    O    0.537750    0.462250    0.636550
O189    O    0.962250    0.136550    0.537750
O190    O    0.863450    0.037750    0.636550
O191    O    0.537750    0.363450    0.962250
O192    O    0.636550    0.462250    0.863450
H121    H    0.795385    0.072065    0.704615
H122    H    0.572065    0.295385    0.927935
H123    H    0.704615    0.427935    0.795385
H124    H    0.927935    0.204615    0.572065
H125    H    0.795385    0.204615    0.927935
H126    H    0.572065    0.427935    0.704615
H127    H    0.704615    0.295385    0.572065
H128    H    0.927935    0.072065    0.795385
H129    H    0.795385    0.427935    0.572065
H130    H    0.572065    0.204615    0.795385
H131    H    0.704615    0.072065    0.927935
H132    H    0.927935    0.295385    0.704615
H133    H    0.927935    0.204615    0.795385
H134    H    0.704615    0.427935    0.572065
H135    H    0.572065    0.295385    0.704615
H136    H    0.795385    0.072065    0.927935
H137    H    0.795385    0.204615    0.572065
H138    H    0.572065    0.427935    0.795385
H139    H    0.704615    0.295385    0.927935
H140    H    0.927935    0.072065    0.704615
H141    H    0.572065    0.204615    0.927935
H142    H    0.795385    0.427935    0.704615
H143    H    0.927935    0.295385    0.572065
H144    H    0.704615    0.072065    0.795385
Zr37    Zr    0.938150    0.938150    0.061850
Zr38    Zr    0.561850    0.561850    0.438150
Zr39    Zr    0.938150    0.561850    0.061850
Zr40    Zr    0.561850    0.938150    0.438150
Zr41    Zr    0.938150    0.561850    0.438150
Zr42    Zr    0.561850    0.938150    0.061850
C289    C    0.776150    0.538750    0.223850
C290    C    0.538750    0.776150    0.461250
C291    C    0.723850    0.961250    0.276150
C292    C    0.961250    0.723850    0.038750
C293    C    0.776150    0.723850    0.461250
C294    C    0.538750    0.961250    0.223850
C295    C    0.723850    0.776150    0.038750
C296    C    0.961250    0.538750    0.276150
C297    C    0.776150    0.961250    0.038750
C298    C    0.538750    0.723850    0.276150
C299    C    0.723850    0.538750    0.461250
C300    C    0.961250    0.776150    0.223850
C301    C    0.961250    0.723850    0.276150
C302    C    0.723850    0.961250    0.038750
C303    C    0.538750    0.776150    0.223850
C304    C    0.776150    0.538750    0.461250
C305    C    0.776150    0.723850    0.038750
C306    C    0.538750    0.961250    0.276150
C307    C    0.723850    0.776150    0.461250
C308    C    0.961250    0.538750    0.223850
C309    C    0.538750    0.723850    0.461250
C310    C    0.776150    0.961250    0.223850
C311    C    0.961250    0.776150    0.038750
C312    C    0.723850    0.538750    0.276150
C313    C    0.843700    0.500000    0.156300
C314    C    0.796700    0.500000    0.203300
C315    C    0.500000    0.843700    0.000000
C316    C    0.500000    0.796700    0.000000
C317    C    0.656300    0.500000    0.343700
C318    C    0.703300    0.500000    0.296700
C319    C    0.500000    0.656300    0.000000
C320    C    0.500000    0.703300    0.000000
C321    C    0.843700    0.656300    0.000000
C322    C    0.796700    0.703300    0.000000
C323    C    0.500000    0.500000    0.156300
C324    C    0.500000    0.500000    0.203300
C325    C    0.656300    0.843700    0.000000
C326    C    0.703300    0.796700    0.000000
C327    C    0.500000    0.500000    0.343700
C328    C    0.500000    0.500000    0.296700
C329    C    0.843700    0.500000    0.000000
C330    C    0.796700    0.500000    0.000000
C331    C    0.500000    0.656300    0.343700
C332    C    0.500000    0.703300    0.296700
C333    C    0.656300    0.500000    0.000000
C334    C    0.703300    0.500000    0.000000
C335    C    0.500000    0.843700    0.156300
C336    C    0.500000    0.796700    0.203300
O193    O    0.893200    0.535600    0.035600
O194    O    0.535600    0.893200    0.035600
O195    O    0.535600    0.535600    0.393200
O196    O    0.535600    0.535600    0.035600
O197    O    0.964400    0.606800    0.464400
O198    O    0.606800    0.964400    0.464400
O199    O    0.964400    0.964400    0.106800
O200    O    0.964400    0.964400    0.464400
O201    O    0.863450    0.962250    0.136550
O202    O    0.962250    0.863450    0.037750
O203    O    0.636550    0.537750    0.363450
O204    O    0.537750    0.636550    0.462250
O205    O    0.863450    0.636550    0.037750
O206    O    0.962250    0.537750    0.136550
O207    O    0.636550    0.863450    0.462250
O208    O    0.537750    0.962250    0.363450
O209    O    0.863450    0.537750    0.462250
O210    O    0.962250    0.636550    0.363450
O211    O    0.636550    0.962250    0.037750
O212    O    0.537750    0.863450    0.136550
O213    O    0.537750    0.636550    0.363450
O214    O    0.636550    0.537750    0.462250
O215    O    0.962250    0.863450    0.136550
O216    O    0.863450    0.962250    0.037750
O217    O    0.863450    0.636550    0.462250
O218    O    0.962250    0.537750    0.363450
O219    O    0.636550    0.863450    0.037750
O220    O    0.537750    0.962250    0.136550
O221    O    0.962250    0.636550    0.037750
O222    O    0.863450    0.537750    0.136550
O223    O    0.537750    0.863450    0.462250
O224    O    0.636550    0.962250    0.363450
H145    H    0.795385    0.572065    0.204615
H146    H    0.572065    0.795385    0.427935
H147    H    0.704615    0.927935    0.295385
H148    H    0.927935    0.704615    0.072065
H149    H    0.795385    0.704615    0.427935
H150    H    0.572065    0.927935    0.204615
H151    H    0.704615    0.795385    0.072065
H152    H    0.927935    0.572065    0.295385
H153    H    0.795385    0.927935    0.072065
H154    H    0.572065    0.704615    0.295385
H155    H    0.704615    0.572065    0.427935
H156    H    0.927935    0.795385    0.204615
H157    H    0.927935    0.704615    0.295385
H158    H    0.704615    0.927935    0.072065
H159    H    0.572065    0.795385    0.204615
H160    H    0.795385    0.572065    0.427935
H161    H    0.795385    0.704615    0.072065
H162    H    0.572065    0.927935    0.295385
H163    H    0.704615    0.795385    0.427935
H164    H    0.927935    0.572065    0.204615
H165    H    0.572065    0.704615    0.427935
H166    H    0.795385    0.927935    0.204615
H167    H    0.927935    0.795385    0.072065
H168    H    0.704615    0.572065    0.295385
Zr43    Zr    0.938150    0.938150    0.561850
Zr44    Zr    0.561850    0.561850    0.938150
Zr45    Zr    0.938150    0.561850    0.561850
Zr46    Zr    0.561850    0.938150    0.938150
Zr47    Zr    0.938150    0.561850    0.938150
Zr48    Zr    0.561850    0.938150    0.561850
C337    C    0.776150    0.538750    0.723850
C338    C    0.538750    0.776150    0.961250
C339    C    0.723850    0.961250    0.776150
C340    C    0.961250    0.723850    0.538750
C341    C    0.776150    0.723850    0.961250
C342    C    0.538750    0.961250    0.723850
C343    C    0.723850    0.776150    0.538750
C344    C    0.961250    0.538750    0.776150
C345    C    0.776150    0.961250    0.538750
C346    C    0.538750    0.723850    0.776150
C347    C    0.723850    0.538750    0.961250
C348    C    0.961250    0.776150    0.723850
C349    C    0.961250    0.723850    0.776150
C350    C    0.723850    0.961250    0.538750
C351    C    0.538750    0.776150    0.723850
C352    C    0.776150    0.538750    0.961250
C353    C    0.776150    0.723850    0.538750
C354    C    0.538750    0.961250    0.776150
C355    C    0.723850    0.776150    0.961250
C356    C    0.961250    0.538750    0.723850
C357    C    0.538750    0.723850    0.961250
C358    C    0.776150    0.961250    0.723850
C359    C    0.961250    0.776150    0.538750
C360    C    0.723850    0.538750    0.776150
C361    C    0.843700    0.500000    0.656300
C362    C    0.796700    0.500000    0.703300
C363    C    0.500000    0.843700    0.500000
C364    C    0.500000    0.796700    0.500000
C365    C    0.656300    0.500000    0.843700
C366    C    0.703300    0.500000    0.796700
C367    C    0.500000    0.656300    0.500000
C368    C    0.500000    0.703300    0.500000
C369    C    0.843700    0.656300    0.500000
C370    C    0.796700    0.703300    0.500000
C371    C    0.500000    0.500000    0.656300
C372    C    0.500000    0.500000    0.703300
C373    C    0.656300    0.843700    0.500000
C374    C    0.703300    0.796700    0.500000
C375    C    0.500000    0.500000    0.843700
C376    C    0.500000    0.500000    0.796700
C377    C    0.843700    0.500000    0.500000
C378    C    0.796700    0.500000    0.500000
C379    C    0.500000    0.656300    0.843700
C380    C    0.500000    0.703300    0.796700
C381    C    0.656300    0.500000    0.500000
C382    C    0.703300    0.500000    0.500000
C383    C    0.500000    0.843700    0.656300
C384    C    0.500000    0.796700    0.703300
O225    O    0.893200    0.535600    0.535600
O226    O    0.535600    0.893200    0.535600
O227    O    0.535600    0.535600    0.893200
O228    O    0.535600    0.535600    0.535600
O229    O    0.964400    0.606800    0.964400
O230    O    0.606800    0.964400    0.964400
O231    O    0.964400    0.964400    0.606800
O232    O    0.964400    0.964400    0.964400
O233    O    0.863450    0.962250    0.636550
O234    O    0.962250    0.863450    0.537750
O235    O    0.636550    0.537750    0.863450
O236    O    0.537750    0.636550    0.962250
O237    O    0.863450    0.636550    0.537750
O238    O    0.962250    0.537750    0.636550
O239    O    0.636550    0.863450    0.962250
O240    O    0.537750    0.962250    0.863450
O241    O    0.863450    0.537750    0.962250
O242    O    0.962250    0.636550    0.863450
O243    O    0.636550    0.962250    0.537750
O244    O    0.537750    0.863450    0.636550
O245    O    0.537750    0.636550    0.863450
O246    O    0.636550    0.537750    0.962250
O247    O    0.962250    0.863450    0.636550
O248    O    0.863450    0.962250    0.537750
O249    O    0.863450    0.636550    0.962250
O250    O    0.962250    0.537750    0.863450
O251    O    0.636550    0.863450    0.537750
O252    O    0.537750    0.962250    0.636550
O253    O    0.962250    0.636550    0.537750
O254    O    0.863450    0.537750    0.636550
O255    O    0.537750    0.863450    0.962250
O256    O    0.636550    0.962250    0.863450
H169    H    0.795385    0.572065    0.704615
H170    H    0.572065    0.795385    0.927935
H171    H    0.704615    0.927935    0.795385
H172    H    0.927935    0.704615    0.572065
H173    H    0.795385    0.704615    0.927935
H174    H    0.572065    0.927935    0.704615
H175    H    0.704615    0.795385    0.572065
H176    H    0.927935    0.572065    0.795385
H177    H    0.795385    0.927935    0.572065
H178    H    0.572065    0.704615    0.795385
H179    H    0.704615    0.572065    0.927935
H180    H    0.927935    0.795385    0.704615
H181    H    0.927935    0.704615    0.795385
H182    H    0.704615    0.927935    0.572065
H183    H    0.572065    0.795385    0.704615
H184    H    0.795385    0.572065    0.927935
H185    H    0.795385    0.704615    0.572065
H186    H    0.572065    0.927935    0.795385
H187    H    0.704615    0.795385    0.927935
H188    H    0.927935    0.572065    0.704615
H189    H    0.572065    0.704615    0.927935
H190    H    0.795385    0.927935    0.704615
H191    H    0.927935    0.795385    0.572065
H192    H    0.704615    0.572065    0.795385
