data_new_xtal_PM
_symmetry_space_group_name_H-M    'P1'
_cell_length_a    29.634800
_cell_length_b    29.634800
_cell_length_c    29.634800
_cell_angle_alpha    60.000000
_cell_angle_beta    60.000000
_cell_angle_gamma    60.000000
_symmetry_Int_Tables_number 1

loop_
_symmetry_equiv_pos_as_xyz
'x,y,z'

loop_
_atom_site_label
_atom_site_type_symbol
_atom_site_fract_x
_atom_site_fract_y
_atom_site_fract_z
C1    C    0.276150    0.038750    0.223850
C2    C    0.038750    0.276150    0.461250
C3    C    0.223850    0.461250    0.276150
C4    C    0.461250    0.223850    0.038750
C5    C    0.276150    0.223850    0.461250
C6    C    0.038750    0.461250    0.223850
C7    C    0.223850    0.276150    0.038750
C8    C    0.461250    0.038750    0.276150
C9    C    0.276150    0.461250    0.038750
C10    C    0.038750    0.223850    0.276150
C11    C    0.223850    0.038750    0.461250
C12    C    0.461250    0.276150    0.223850
C13    C    0.461250    0.223850    0.276150
C14    C    0.223850    0.461250    0.038750
C15    C    0.038750    0.276150    0.223850
C16    C    0.276150    0.038750    0.461250
C17    C    0.276150    0.223850    0.038750
C18    C    0.038750    0.461250    0.276150
C19    C    0.223850    0.276150    0.461250
C20    C    0.461250    0.038750    0.223850
C21    C    0.038750    0.223850    0.461250
C22    C    0.276150    0.461250    0.223850
C23    C    0.461250    0.276150    0.038750
C24    C    0.223850    0.038750    0.276150
C25    C    0.296700    0.000000    0.203300
C26    C    0.000000    0.296700    0.000000
C27    C    0.203300    0.000000    0.296700
C28    C    0.000000    0.203300    0.000000
C29    C    0.296700    0.203300    0.000000
C30    C    0.000000    0.000000    0.203300
C31    C    0.203300    0.296700    0.000000
C32    C    0.000000    0.000000    0.296700
C33    C    0.296700    0.000000    0.000000
C34    C    0.000000    0.203300    0.296700
C35    C    0.203300    0.000000    0.000000
C36    C    0.000000    0.296700    0.203300
H1    H    0.295385    0.072065    0.204615
H2    H    0.072065    0.295385    0.427935
H3    H    0.204615    0.427935    0.295385
H4    H    0.427935    0.204615    0.072065
H5    H    0.295385    0.204615    0.427935
H6    H    0.072065    0.427935    0.204615
H7    H    0.204615    0.295385    0.072065
H8    H    0.427935    0.072065    0.295385
H9    H    0.295385    0.427935    0.072065
H10    H    0.072065    0.204615    0.295385
H11    H    0.204615    0.072065    0.427935
H12    H    0.427935    0.295385    0.204615
H13    H    0.427935    0.204615    0.295385
H14    H    0.204615    0.427935    0.072065
H15    H    0.072065    0.295385    0.204615
H16    H    0.295385    0.072065    0.427935
H17    H    0.295385    0.204615    0.072065
H18    H    0.072065    0.427935    0.295385
H19    H    0.204615    0.295385    0.427935
H20    H    0.427935    0.072065    0.204615
H21    H    0.072065    0.204615    0.427935
H22    H    0.295385    0.427935    0.204615
H23    H    0.427935    0.295385    0.072065
H24    H    0.204615    0.072065    0.295385
C37    C    0.276150    0.038750    0.723850
C38    C    0.038750    0.276150    0.961250
C39    C    0.223850    0.461250    0.776150
C40    C    0.461250    0.223850    0.538750
C41    C    0.276150    0.223850    0.961250
C42    C    0.038750    0.461250    0.723850
C43    C    0.223850    0.276150    0.538750
C44    C    0.461250    0.038750    0.776150
C45    C    0.276150    0.461250    0.538750
C46    C    0.038750    0.223850    0.776150
C47    C    0.223850    0.038750    0.961250
C48    C    0.461250    0.276150    0.723850
C49    C    0.461250    0.223850    0.776150
C50    C    0.223850    0.461250    0.538750
C51    C    0.038750    0.276150    0.723850
C52    C    0.276150    0.038750    0.961250
C53    C    0.276150    0.223850    0.538750
C54    C    0.038750    0.461250    0.776150
C55    C    0.223850    0.276150    0.961250
C56    C    0.461250    0.038750    0.723850
C57    C    0.038750    0.223850    0.961250
C58    C    0.276150    0.461250    0.723850
C59    C    0.461250    0.276150    0.538750
C60    C    0.223850    0.038750    0.776150
C61    C    0.296700    0.000000    0.703300
C62    C    0.000000    0.296700    0.500000
C63    C    0.203300    0.000000    0.796700
C64    C    0.000000    0.203300    0.500000
C65    C    0.296700    0.203300    0.500000
C66    C    0.000000    0.000000    0.703300
C67    C    0.203300    0.296700    0.500000
C68    C    0.000000    0.000000    0.796700
C69    C    0.296700    0.000000    0.500000
C70    C    0.000000    0.203300    0.796700
C71    C    0.203300    0.000000    0.500000
C72    C    0.000000    0.296700    0.703300
H25    H    0.295385    0.072065    0.704615
H26    H    0.072065    0.295385    0.927935
H27    H    0.204615    0.427935    0.795385
H28    H    0.427935    0.204615    0.572065
H29    H    0.295385    0.204615    0.927935
H30    H    0.072065    0.427935    0.704615
H31    H    0.204615    0.295385    0.572065
H32    H    0.427935    0.072065    0.795385
H33    H    0.295385    0.427935    0.572065
H34    H    0.072065    0.204615    0.795385
H35    H    0.204615    0.072065    0.927935
H36    H    0.427935    0.295385    0.704615
H37    H    0.427935    0.204615    0.795385
H38    H    0.204615    0.427935    0.572065
H39    H    0.072065    0.295385    0.704615
H40    H    0.295385    0.072065    0.927935
H41    H    0.295385    0.204615    0.572065
H42    H    0.072065    0.427935    0.795385
H43    H    0.204615    0.295385    0.927935
H44    H    0.427935    0.072065    0.704615
H45    H    0.072065    0.204615    0.927935
H46    H    0.295385    0.427935    0.704615
H47    H    0.427935    0.295385    0.572065
H48    H    0.204615    0.072065    0.795385
C73    C    0.276150    0.538750    0.223850
C74    C    0.038750    0.776150    0.461250
C75    C    0.223850    0.961250    0.276150
C76    C    0.461250    0.723850    0.038750
C77    C    0.276150    0.723850    0.461250
C78    C    0.038750    0.961250    0.223850
C79    C    0.223850    0.776150    0.038750
C80    C    0.461250    0.538750    0.276150
C81    C    0.276150    0.961250    0.038750
C82    C    0.038750    0.723850    0.276150
C83    C    0.223850    0.538750    0.461250
C84    C    0.461250    0.776150    0.223850
C85    C    0.461250    0.723850    0.276150
C86    C    0.223850    0.961250    0.038750
C87    C    0.038750    0.776150    0.223850
C88    C    0.276150    0.538750    0.461250
C89    C    0.276150    0.723850    0.038750
C90    C    0.038750    0.961250    0.276150
C91    C    0.223850    0.776150    0.461250
C92    C    0.461250    0.538750    0.223850
C93    C    0.038750    0.723850    0.461250
C94    C    0.276150    0.961250    0.223850
C95    C    0.461250    0.776150    0.038750
C96    C    0.223850    0.538750    0.276150
C97    C    0.296700    0.500000    0.203300
C98    C    0.000000    0.796700    0.000000
C99    C    0.203300    0.500000    0.296700
C100    C    0.000000    0.703300    0.000000
C101    C    0.296700    0.703300    0.000000
C102    C    0.000000    0.500000    0.203300
C103    C    0.203300    0.796700    0.000000
C104    C    0.000000    0.500000    0.296700
C105    C    0.296700    0.500000    0.000000
C106    C    0.000000    0.703300    0.296700
C107    C    0.203300    0.500000    0.000000
C108    C    0.000000    0.796700    0.203300
H49    H    0.295385    0.572065    0.204615
H50    H    0.072065    0.795385    0.427935
H51    H    0.204615    0.927935    0.295385
H52    H    0.427935    0.704615    0.072065
H53    H    0.295385    0.704615    0.427935
H54    H    0.072065    0.927935    0.204615
H55    H    0.204615    0.795385    0.072065
H56    H    0.427935    0.572065    0.295385
H57    H    0.295385    0.927935    0.072065
H58    H    0.072065    0.704615    0.295385
H59    H    0.204615    0.572065    0.427935
H60    H    0.427935    0.795385    0.204615
H61    H    0.427935    0.704615    0.295385
H62    H    0.204615    0.927935    0.072065
H63    H    0.072065    0.795385    0.204615
H64    H    0.295385    0.572065    0.427935
H65    H    0.295385    0.704615    0.072065
H66    H    0.072065    0.927935    0.295385
H67    H    0.204615    0.795385    0.427935
H68    H    0.427935    0.572065    0.204615
H69    H    0.072065    0.704615    0.427935
H70    H    0.295385    0.927935    0.204615
H71    H    0.427935    0.795385    0.072065
H72    H    0.204615    0.572065    0.295385
C109    C    0.276150    0.538750    0.723850
C110    C    0.038750    0.776150    0.961250
C111    C    0.223850    0.961250    0.776150
C112    C    0.461250    0.723850    0.538750
C113    C    0.276150    0.723850    0.961250
C114    C    0.038750    0.961250    0.723850
C115    C    0.223850    0.776150    0.538750
C116    C    0.461250    0.538750    0.776150
C117    C    0.276150    0.961250    0.538750
C118    C    0.038750    0.723850    0.776150
C119    C    0.223850    0.538750    0.961250
C120    C    0.461250    0.776150    0.723850
C121    C    0.461250    0.723850    0.776150
C122    C    0.223850    0.961250    0.538750
C123    C    0.038750    0.776150    0.723850
C124    C    0.276150    0.538750    0.961250
C125    C    0.276150    0.723850    0.538750
C126    C    0.038750    0.961250    0.776150
C127    C    0.223850    0.776150    0.961250
C128    C    0.461250    0.538750    0.723850
C129    C    0.038750    0.723850    0.961250
C130    C    0.276150    0.961250    0.723850
C131    C    0.461250    0.776150    0.538750
C132    C    0.223850    0.538750    0.776150
C133    C    0.296700    0.500000    0.703300
C134    C    0.000000    0.796700    0.500000
C135    C    0.203300    0.500000    0.796700
C136    C    0.000000    0.703300    0.500000
C137    C    0.296700    0.703300    0.500000
C138    C    0.000000    0.500000    0.703300
C139    C    0.203300    0.796700    0.500000
C140    C    0.000000    0.500000    0.796700
C141    C    0.296700    0.500000    0.500000
C142    C    0.000000    0.703300    0.796700
C143    C    0.203300    0.500000    0.500000
C144    C    0.000000    0.796700    0.703300
H73    H    0.295385    0.572065    0.704615
H74    H    0.072065    0.795385    0.927935
H75    H    0.204615    0.927935    0.795385
H76    H    0.427935    0.704615    0.572065
H77    H    0.295385    0.704615    0.927935
H78    H    0.072065    0.927935    0.704615
H79    H    0.204615    0.795385    0.572065
H80    H    0.427935    0.572065    0.795385
H81    H    0.295385    0.927935    0.572065
H82    H    0.072065    0.704615    0.795385
H83    H    0.204615    0.572065    0.927935
H84    H    0.427935    0.795385    0.704615
H85    H    0.427935    0.704615    0.795385
H86    H    0.204615    0.927935    0.572065
H87    H    0.072065    0.795385    0.704615
H88    H    0.295385    0.572065    0.927935
H89    H    0.295385    0.704615    0.572065
H90    H    0.072065    0.927935    0.795385
H91    H    0.204615    0.795385    0.927935
H92    H    0.427935    0.572065    0.704615
H93    H    0.072065    0.704615    0.927935
H94    H    0.295385    0.927935    0.704615
H95    H    0.427935    0.795385    0.572065
H96    H    0.204615    0.572065    0.795385
C145    C    0.776150    0.038750    0.223850
C146    C    0.538750    0.276150    0.461250
C147    C    0.723850    0.461250    0.276150
C148    C    0.961250    0.223850    0.038750
C149    C    0.776150    0.223850    0.461250
C150    C    0.538750    0.461250    0.223850
C151    C    0.723850    0.276150    0.038750
C152    C    0.961250    0.038750    0.276150
C153    C    0.776150    0.461250    0.038750
C154    C    0.538750    0.223850    0.276150
C155    C    0.723850    0.038750    0.461250
C156    C    0.961250    0.276150    0.223850
C157    C    0.961250    0.223850    0.276150
C158    C    0.723850    0.461250    0.038750
C159    C    0.538750    0.276150    0.223850
C160    C    0.776150    0.038750    0.461250
C161    C    0.776150    0.223850    0.038750
C162    C    0.538750    0.461250    0.276150
C163    C    0.723850    0.276150    0.461250
C164    C    0.961250    0.038750    0.223850
C165    C    0.538750    0.223850    0.461250
C166    C    0.776150    0.461250    0.223850
C167    C    0.961250    0.276150    0.038750
C168    C    0.723850    0.038750    0.276150
C169    C    0.796700    0.000000    0.203300
C170    C    0.500000    0.296700    0.000000
C171    C    0.703300    0.000000    0.296700
C172    C    0.500000    0.203300    0.000000
C173    C    0.796700    0.203300    0.000000
C174    C    0.500000    0.000000    0.203300
C175    C    0.703300    0.296700    0.000000
C176    C    0.500000    0.000000    0.296700
C177    C    0.796700    0.000000    0.000000
C178    C    0.500000    0.203300    0.296700
C179    C    0.703300    0.000000    0.000000
C180    C    0.500000    0.296700    0.203300
H97    H    0.795385    0.072065    0.204615
H98    H    0.572065    0.295385    0.427935
H99    H    0.704615    0.427935    0.295385
H100    H    0.927935    0.204615    0.072065
H101    H    0.795385    0.204615    0.427935
H102    H    0.572065    0.427935    0.204615
H103    H    0.704615    0.295385    0.072065
H104    H    0.927935    0.072065    0.295385
H105    H    0.795385    0.427935    0.072065
H106    H    0.572065    0.204615    0.295385
H107    H    0.704615    0.072065    0.427935
H108    H    0.927935    0.295385    0.204615
H109    H    0.927935    0.204615    0.295385
H110    H    0.704615    0.427935    0.072065
H111    H    0.572065    0.295385    0.204615
H112    H    0.795385    0.072065    0.427935
H113    H    0.795385    0.204615    0.072065
H114    H    0.572065    0.427935    0.295385
H115    H    0.704615    0.295385    0.427935
H116    H    0.927935    0.072065    0.204615
H117    H    0.572065    0.204615    0.427935
H118    H    0.795385    0.427935    0.204615
H119    H    0.927935    0.295385    0.072065
H120    H    0.704615    0.072065    0.295385
C181    C    0.776150    0.038750    0.723850
C182    C    0.538750    0.276150    0.961250
C183    C    0.723850    0.461250    0.776150
C184    C    0.961250    0.223850    0.538750
C185    C    0.776150    0.223850    0.961250
C186    C    0.538750    0.461250    0.723850
C187    C    0.723850    0.276150    0.538750
C188    C    0.961250    0.038750    0.776150
C189    C    0.776150    0.461250    0.538750
C190    C    0.538750    0.223850    0.776150
C191    C    0.723850    0.038750    0.961250
C192    C    0.961250    0.276150    0.723850
C193    C    0.961250    0.223850    0.776150
C194    C    0.723850    0.461250    0.538750
C195    C    0.538750    0.276150    0.723850
C196    C    0.776150    0.038750    0.961250
C197    C    0.776150    0.223850    0.538750
C198    C    0.538750    0.461250    0.776150
C199    C    0.723850    0.276150    0.961250
C200    C    0.961250    0.038750    0.723850
C201    C    0.538750    0.223850    0.961250
C202    C    0.776150    0.461250    0.723850
C203    C    0.961250    0.276150    0.538750
C204    C    0.723850    0.038750    0.776150
C205    C    0.796700    0.000000    0.703300
C206    C    0.500000    0.296700    0.500000
C207    C    0.703300    0.000000    0.796700
C208    C    0.500000    0.203300    0.500000
C209    C    0.796700    0.203300    0.500000
C210    C    0.500000    0.000000    0.703300
C211    C    0.703300    0.296700    0.500000
C212    C    0.500000    0.000000    0.796700
C213    C    0.796700    0.000000    0.500000
C214    C    0.500000    0.203300    0.796700
C215    C    0.703300    0.000000    0.500000
C216    C    0.500000    0.296700    0.703300
H121    H    0.795385    0.072065    0.704615
H122    H    0.572065    0.295385    0.927935
H123    H    0.704615    0.427935    0.795385
H124    H    0.927935    0.204615    0.572065
H125    H    0.795385    0.204615    0.927935
H126    H    0.572065    0.427935    0.704615
H127    H    0.704615    0.295385    0.572065
H128    H    0.927935    0.072065    0.795385
H129    H    0.795385    0.427935    0.572065
H130    H    0.572065    0.204615    0.795385
H131    H    0.704615    0.072065    0.927935
H132    H    0.927935    0.295385    0.704615
H133    H    0.927935    0.204615    0.795385
H134    H    0.704615    0.427935    0.572065
H135    H    0.572065    0.295385    0.704615
H136    H    0.795385    0.072065    0.927935
H137    H    0.795385    0.204615    0.572065
H138    H    0.572065    0.427935    0.795385
H139    H    0.704615    0.295385    0.927935
H140    H    0.927935    0.072065    0.704615
H141    H    0.572065    0.204615    0.927935
H142    H    0.795385    0.427935    0.704615
H143    H    0.927935    0.295385    0.572065
H144    H    0.704615    0.072065    0.795385
C217    C    0.776150    0.538750    0.223850
C218    C    0.538750    0.776150    0.461250
C219    C    0.723850    0.961250    0.276150
C220    C    0.961250    0.723850    0.038750
C221    C    0.776150    0.723850    0.461250
C222    C    0.538750    0.961250    0.223850
C223    C    0.723850    0.776150    0.038750
C224    C    0.961250    0.538750    0.276150
C225    C    0.776150    0.961250    0.038750
C226    C    0.538750    0.723850    0.276150
C227    C    0.723850    0.538750    0.461250
C228    C    0.961250    0.776150    0.223850
C229    C    0.961250    0.723850    0.276150
C230    C    0.723850    0.961250    0.038750
C231    C    0.538750    0.776150    0.223850
C232    C    0.776150    0.538750    0.461250
C233    C    0.776150    0.723850    0.038750
C234    C    0.538750    0.961250    0.276150
C235    C    0.723850    0.776150    0.461250
C236    C    0.961250    0.538750    0.223850
C237    C    0.538750    0.723850    0.461250
C238    C    0.776150    0.961250    0.223850
C239    C    0.961250    0.776150    0.038750
C240    C    0.723850    0.538750    0.276150
C241    C    0.796700    0.500000    0.203300
C242    C    0.500000    0.796700    0.000000
C243    C    0.703300    0.500000    0.296700
C244    C    0.500000    0.703300    0.000000
C245    C    0.796700    0.703300    0.000000
C246    C    0.500000    0.500000    0.203300
C247    C    0.703300    0.796700    0.000000
C248    C    0.500000    0.500000    0.296700
C249    C    0.796700    0.500000    0.000000
C250    C    0.500000    0.703300    0.296700
C251    C    0.703300    0.500000    0.000000
C252    C    0.500000    0.796700    0.203300
H145    H    0.795385    0.572065    0.204615
H146    H    0.572065    0.795385    0.427935
H147    H    0.704615    0.927935    0.295385
H148    H    0.927935    0.704615    0.072065
H149    H    0.795385    0.704615    0.427935
H150    H    0.572065    0.927935    0.204615
H151    H    0.704615    0.795385    0.072065
H152    H    0.927935    0.572065    0.295385
H153    H    0.795385    0.927935    0.072065
H154    H    0.572065    0.704615    0.295385
H155    H    0.704615    0.572065    0.427935
H156    H    0.927935    0.795385    0.204615
H157    H    0.927935    0.704615    0.295385
H158    H    0.704615    0.927935    0.072065
H159    H    0.572065    0.795385    0.204615
H160    H    0.795385    0.572065    0.427935
H161    H    0.795385    0.704615    0.072065
H162    H    0.572065    0.927935    0.295385
H163    H    0.704615    0.795385    0.427935
H164    H    0.927935    0.572065    0.204615
H165    H    0.572065    0.704615    0.427935
H166    H    0.795385    0.927935    0.204615
H167    H    0.927935    0.795385    0.072065
H168    H    0.704615    0.572065    0.295385
C253    C    0.776150    0.538750    0.723850
C254    C    0.538750    0.776150    0.961250
C255    C    0.723850    0.961250    0.776150
C256    C    0.961250    0.723850    0.538750
C257    C    0.776150    0.723850    0.961250
C258    C    0.538750    0.961250    0.723850
C259    C    0.723850    0.776150    0.538750
C260    C    0.961250    0.538750    0.776150
C261    C    0.776150    0.961250    0.538750
C262    C    0.538750    0.723850    0.776150
C263    C    0.723850    0.538750    0.961250
C264    C    0.961250    0.776150    0.723850
C265    C    0.961250    0.723850    0.776150
C266    C    0.723850    0.961250    0.538750
C267    C    0.538750    0.776150    0.723850
C268    C    0.776150    0.538750    0.961250
C269    C    0.776150    0.723850    0.538750
C270    C    0.538750    0.961250    0.776150
C271    C    0.723850    0.776150    0.961250
C272    C    0.961250    0.538750    0.723850
C273    C    0.538750    0.723850    0.961250
C274    C    0.776150    0.961250    0.723850
C275    C    0.961250    0.776150    0.538750
C276    C    0.723850    0.538750    0.776150
C277    C    0.796700    0.500000    0.703300
C278    C    0.500000    0.796700    0.500000
C279    C    0.703300    0.500000    0.796700
C280    C    0.500000    0.703300    0.500000
C281    C    0.796700    0.703300    0.500000
C282    C    0.500000    0.500000    0.703300
C283    C    0.703300    0.796700    0.500000
C284    C    0.500000    0.500000    0.796700
C285    C    0.796700    0.500000    0.500000
C286    C    0.500000    0.703300    0.796700
C287    C    0.703300    0.500000    0.500000
C288    C    0.500000    0.796700    0.703300
H169    H    0.795385    0.572065    0.704615
H170    H    0.572065    0.795385    0.927935
H171    H    0.704615    0.927935    0.795385
H172    H    0.927935    0.704615    0.572065
H173    H    0.795385    0.704615    0.927935
H174    H    0.572065    0.927935    0.704615
H175    H    0.704615    0.795385    0.572065
H176    H    0.927935    0.572065    0.795385
H177    H    0.795385    0.927935    0.572065
H178    H    0.572065    0.704615    0.795385
H179    H    0.704615    0.572065    0.927935
H180    H    0.927935    0.795385    0.704615
H181    H    0.927935    0.704615    0.795385
H182    H    0.704615    0.927935    0.572065
H183    H    0.572065    0.795385    0.704615
H184    H    0.795385    0.572065    0.927935
H185    H    0.795385    0.704615    0.572065
H186    H    0.572065    0.927935    0.795385
H187    H    0.704615    0.795385    0.927935
H188    H    0.927935    0.572065    0.704615
H189    H    0.572065    0.704615    0.927935
H190    H    0.795385    0.927935    0.704615
H191    H    0.927935    0.795385    0.572065
H192    H    0.704615    0.572065    0.795385
Hf1    Hf    0.561850    0.438150    0.061850
Zr1    Zr    0.438150    0.438151    0.061850
Zr2    Zr    0.438150    0.561850    0.061850
Zr3    Zr    0.561851    0.438149    0.938151
Zr4    Zr    0.561851    0.561849    0.938151
Hf2    Hf    0.438151    0.561849    0.938151
O1    O    0.464398    0.464400    0.106802
O2    O    0.535599    0.393201    0.035598
O3    O    0.606802    0.464399    0.964399
O4    O    0.393200    0.535601    0.035598
O5    O    0.535599    0.535601    0.035598
O6    O    0.464399    0.464401    0.964399
O7    O    0.464399    0.606801    0.964399
O8    O    0.535599    0.535601    0.893199
C289    C    0.500002    0.343698    0.156301
O9    O    0.537749    0.363449    0.136550
O10    O    0.462251    0.363448    0.136550
O11    O    0.636551    0.363447    0.037752
O12    O    0.537749    0.462252    0.136550
O13    O    0.363450    0.462251    0.136550
O14    O    0.462248    0.363451    0.037752
C290    C    0.656301    0.343699    0.999998
C291    C    0.499999    0.343702    0.999998
C292    C    0.500002    0.500000    0.156301
C293    C    0.343700    0.500000    0.156301
O15    O    0.462251    0.537750    0.136550
O16    O    0.636551    0.363449    0.962250
O17    O    0.363450    0.537750    0.136550
O18    O    0.537749    0.363452    0.962250
O19    O    0.636551    0.462250    0.037752
O20    O    0.363450    0.462248    0.037751
C294    C    0.656301    0.500002    0.999998
C295    C    0.343702    0.499999    0.999998
O21    O    0.363450    0.537749    0.962249
O22    O    0.636551    0.537751    0.962250
O23    O    0.462248    0.636549    0.037752
O24    O    0.363450    0.636550    0.037751
O25    O    0.636551    0.462249    0.863451
O26    O    0.537749    0.462249    0.863451
C296    C    0.499999    0.499999    0.843700
C297    C    0.656301    0.499999    0.843700
C298    C    0.499999    0.656301    0.999998
C299    C    0.343702    0.656301    0.999998
O27    O    0.636551    0.537748    0.863451
O28    O    0.462248    0.537749    0.863451
O29    O    0.537749    0.636550    0.962250
O30    O    0.363450    0.636552    0.962249
O31    O    0.462248    0.636552    0.863451
O32    O    0.537749    0.636551    0.863451
C300    C    0.499999    0.656301    0.843700
Hf3    Hf    0.938150    0.061850    0.561850
Zr5    Zr    0.061850    0.061850    0.438150
Zr6    Zr    0.938151    0.061850    0.438150
Zr7    Zr    0.061849    0.938151    0.561851
Zr8    Zr    0.938149    0.938151    0.561851
Hf4    Hf    0.061849    0.938151    0.438151
O33    O    0.964400    0.106802    0.464398
O34    O    0.035601    0.035598    0.535599
O35    O    0.964399    0.964399    0.606802
O36    O    0.035601    0.035598    0.393200
O37    O    0.893201    0.035598    0.535599
O38    O    0.106801    0.964399    0.464399
O39    O    0.964401    0.964399    0.464399
O40    O    0.035601    0.893199    0.535599
C301    C    0.000000    0.156301    0.500002
O41    O    0.962252    0.136550    0.537749
O42    O    0.037750    0.136550    0.462251
O43    O    0.962250    0.037752    0.636551
O44    O    0.863449    0.136550    0.537749
O45    O    0.037750    0.136550    0.363450
O46    O    0.136549    0.037752    0.462248
C302    C    0.000002    0.999998    0.656301
C303    C    0.156301    0.999998    0.499999
C304    C    0.843698    0.156301    0.500002
C305    C    1.000000    0.156301    0.343700
O47    O    0.863448    0.136550    0.462251
O48    O    0.037751    0.962250    0.636551
O49    O    0.962251    0.136550    0.363450
O50    O    0.136550    0.962250    0.537749
O51    O    0.863447    0.037752    0.636551
O52    O    0.136550    0.037751    0.363450
C306    C    0.843699    0.999998    0.656301
C307    C    0.156301    0.999998    0.343702
O53    O    0.136552    0.962249    0.363450
O54    O    0.863449    0.962250    0.636551
O55    O    0.863451    0.037752    0.462248
O56    O    0.962248    0.037751    0.363450
O57    O    0.037748    0.863451    0.636551
O58    O    0.136551    0.863451    0.537749
C308    C    0.156301    0.843700    0.499999
C309    C    0.999999    0.843700    0.656301
C310    C    0.843702    0.999998    0.499999
C311    C    0.999999    0.999998    0.343702
O59    O    0.962249    0.863451    0.636551
O60    O    0.136552    0.863451    0.462248
O61    O    0.863452    0.962250    0.537749
O62    O    0.037749    0.962249    0.363450
O63    O    0.037749    0.863451    0.462248
O64    O    0.962249    0.863451    0.537749
C312    C    0.999999    0.843700    0.499999
Hf5    Hf    0.561850    0.061850    0.938150
Zr9    Zr    0.438150    0.061850    0.061850
Zr10    Zr    0.438150    0.061850    0.938151
Zr11    Zr    0.561851    0.938151    0.061849
Zr12    Zr    0.561851    0.938151    0.938149
Hf6    Hf    0.438151    0.938151    0.061849
O65    O    0.464398    0.106802    0.964400
O66    O    0.535599    0.035598    0.035601
O67    O    0.606802    0.964399    0.964399
O68    O    0.393200    0.035598    0.035601
O69    O    0.535599    0.035598    0.893201
O70    O    0.464399    0.964399    0.106801
O71    O    0.464399    0.964399    0.964401
O72    O    0.535599    0.893199    0.035601
C313    C    0.500002    0.156301    0.000000
O73    O    0.537749    0.136550    0.962252
O74    O    0.462251    0.136550    0.037750
O75    O    0.636551    0.037752    0.962250
O76    O    0.537749    0.136550    0.863449
O77    O    0.363450    0.136550    0.037750
O78    O    0.462248    0.037752    0.136549
C314    C    0.656301    0.999998    0.000002
C315    C    0.499999    0.999998    0.156301
C316    C    0.500002    0.156301    0.843698
C317    C    0.343700    0.156301    1.000000
O79    O    0.462251    0.136550    0.863448
O80    O    0.636551    0.962250    0.037751
O81    O    0.363450    0.136550    0.962251
O82    O    0.537749    0.962250    0.136550
O83    O    0.636551    0.037752    0.863447
O84    O    0.363450    0.037751    0.136550
C318    C    0.656301    0.999998    0.843699
C319    C    0.343702    0.999998    0.156301
O85    O    0.363450    0.962249    0.136552
O86    O    0.636551    0.962250    0.863449
O87    O    0.462248    0.037752    0.863451
O88    O    0.363450    0.037751    0.962248
O89    O    0.636551    0.863451    0.037748
O90    O    0.537749    0.863451    0.136551
C320    C    0.499999    0.843700    0.156301
C321    C    0.656301    0.843700    0.999999
C322    C    0.499999    0.999998    0.843702
C323    C    0.343702    0.999998    0.999999
O91    O    0.636551    0.863451    0.962249
O92    O    0.462248    0.863451    0.136552
O93    O    0.537749    0.962250    0.863452
O94    O    0.363450    0.962249    0.037749
O95    O    0.462248    0.863451    0.037749
O96    O    0.537749    0.863451    0.962249
C324    C    0.499999    0.843700    0.999999
Hf7    Hf    0.061850    0.561850    0.438150
Zr13    Zr    0.061850    0.438150    0.438151
Zr14    Zr    0.061850    0.438150    0.561850
Zr15    Zr    0.938151    0.561851    0.438149
Zr16    Zr    0.938151    0.561851    0.561849
Hf8    Hf    0.938151    0.438151    0.561849
O97    O    0.106802    0.464398    0.464400
O98    O    0.035598    0.535599    0.393201
O99    O    0.964399    0.606802    0.464399
O100    O    0.035598    0.393200    0.535601
O101    O    0.035598    0.535599    0.535601
O102    O    0.964399    0.464399    0.464401
O103    O    0.964399    0.464399    0.606801
O104    O    0.893199    0.535599    0.535601
C325    C    0.156301    0.500002    0.343698
O105    O    0.136550    0.537749    0.363449
O106    O    0.136550    0.462251    0.363448
O107    O    0.037752    0.636551    0.363447
O108    O    0.136550    0.537749    0.462252
O109    O    0.136550    0.363450    0.462251
O110    O    0.037752    0.462248    0.363451
C326    C    0.999998    0.656301    0.343699
C327    C    0.999998    0.499999    0.343702
C328    C    0.156301    0.500002    0.500000
C329    C    0.156301    0.343700    0.500000
O111    O    0.136550    0.462251    0.537750
O112    O    0.962250    0.636551    0.363449
O113    O    0.136550    0.363450    0.537750
O114    O    0.962250    0.537749    0.363452
O115    O    0.037752    0.636551    0.462250
O116    O    0.037751    0.363450    0.462248
C330    C    0.999998    0.656301    0.500002
C331    C    0.999998    0.343702    0.499999
O117    O    0.962249    0.363450    0.537749
O118    O    0.962250    0.636551    0.537751
O119    O    0.037752    0.462248    0.636549
O120    O    0.037751    0.363450    0.636550
O121    O    0.863451    0.636551    0.462249
O122    O    0.863451    0.537749    0.462249
C332    C    0.843700    0.499999    0.499999
C333    C    0.843700    0.656301    0.499999
C334    C    0.999998    0.499999    0.656301
C335    C    0.999998    0.343702    0.656301
O123    O    0.863451    0.636551    0.537748
O124    O    0.863451    0.462248    0.537749
O125    O    0.962250    0.537749    0.636550
O126    O    0.962249    0.363450    0.636552
O127    O    0.863451    0.462248    0.636552
O128    O    0.863451    0.537749    0.636551
C336    C    0.843700    0.499999    0.656301
Hf9    Hf    0.561850    0.061850    0.438150
Zr17    Zr    0.438150    0.061850    0.438151
Zr18    Zr    0.438150    0.061850    0.561850
Zr19    Zr    0.561851    0.938151    0.438149
Zr20    Zr    0.561851    0.938151    0.561849
Hf10    Hf    0.438151    0.938151    0.561849
O129    O    0.464398    0.106802    0.464400
O130    O    0.535599    0.035598    0.393201
O131    O    0.606802    0.964399    0.464399
O132    O    0.393200    0.035598    0.535601
O133    O    0.535599    0.035598    0.535601
O134    O    0.464399    0.964399    0.464401
O135    O    0.464399    0.964399    0.606801
O136    O    0.535599    0.893199    0.535601
C337    C    0.500002    0.156301    0.343698
O137    O    0.537749    0.136550    0.363449
O138    O    0.462251    0.136550    0.363448
O139    O    0.636551    0.037752    0.363447
O140    O    0.537749    0.136550    0.462252
O141    O    0.363450    0.136550    0.462251
O142    O    0.462248    0.037752    0.363451
C338    C    0.656301    0.999998    0.343699
C339    C    0.499999    0.999998    0.343702
C340    C    0.500002    0.156301    0.500000
C341    C    0.343700    0.156301    0.500000
O143    O    0.462251    0.136550    0.537750
O144    O    0.636551    0.962250    0.363449
O145    O    0.363450    0.136550    0.537750
O146    O    0.537749    0.962250    0.363452
O147    O    0.636551    0.037752    0.462250
O148    O    0.363450    0.037751    0.462248
C342    C    0.656301    0.999998    0.500002
C343    C    0.343702    0.999998    0.499999
O149    O    0.363450    0.962249    0.537749
O150    O    0.636551    0.962250    0.537751
O151    O    0.462248    0.037752    0.636549
O152    O    0.363450    0.037751    0.636550
O153    O    0.636551    0.863451    0.462249
O154    O    0.537749    0.863451    0.462249
C344    C    0.499999    0.843700    0.499999
C345    C    0.656301    0.843700    0.499999
C346    C    0.499999    0.999998    0.656301
C347    C    0.343702    0.999998    0.656301
O155    O    0.636551    0.863451    0.537748
O156    O    0.462248    0.863451    0.537749
O157    O    0.537749    0.962250    0.636550
O158    O    0.363450    0.962249    0.636552
O159    O    0.462248    0.863451    0.636552
O160    O    0.537749    0.863451    0.636551
C348    C    0.499999    0.843700    0.656301
Hf11    Hf    0.061850    0.561850    0.938150
Zr21    Zr    0.061850    0.438150    0.061850
Zr22    Zr    0.061850    0.438150    0.938151
Zr23    Zr    0.938151    0.561851    0.061849
Zr24    Zr    0.938151    0.561851    0.938149
Hf12    Hf    0.938151    0.438151    0.061849
O161    O    0.106802    0.464398    0.964400
O162    O    0.035598    0.535599    0.035601
O163    O    0.964399    0.606802    0.964399
O164    O    0.035598    0.393200    0.035601
O165    O    0.035598    0.535599    0.893201
O166    O    0.964399    0.464399    0.106801
O167    O    0.964399    0.464399    0.964401
O168    O    0.893199    0.535599    0.035601
C349    C    0.156301    0.500002    0.000000
O169    O    0.136550    0.537749    0.962252
O170    O    0.136550    0.462251    0.037750
O171    O    0.037752    0.636551    0.962250
O172    O    0.136550    0.537749    0.863449
O173    O    0.136550    0.363450    0.037750
O174    O    0.037752    0.462248    0.136549
C350    C    0.999998    0.656301    0.000002
C351    C    0.999998    0.499999    0.156301
C352    C    0.156301    0.500002    0.843698
C353    C    0.156301    0.343700    1.000000
O175    O    0.136550    0.462251    0.863448
O176    O    0.962250    0.636551    0.037751
O177    O    0.136550    0.363450    0.962251
O178    O    0.962250    0.537749    0.136550
O179    O    0.037752    0.636551    0.863447
O180    O    0.037751    0.363450    0.136550
C354    C    0.999998    0.656301    0.843699
C355    C    0.999998    0.343702    0.156301
O181    O    0.962249    0.363450    0.136552
O182    O    0.962250    0.636551    0.863449
O183    O    0.037752    0.462248    0.863451
O184    O    0.037751    0.363450    0.962248
O185    O    0.863451    0.636551    0.037748
O186    O    0.863451    0.537749    0.136551
C356    C    0.843700    0.499999    0.156301
C357    C    0.843700    0.656301    0.999999
C358    C    0.999998    0.499999    0.843702
C359    C    0.999998    0.343702    0.999999
O187    O    0.863451    0.636551    0.962249
O188    O    0.863451    0.462248    0.136552
O189    O    0.962250    0.537749    0.863452
O190    O    0.962249    0.363450    0.037749
O191    O    0.863451    0.462248    0.037749
O192    O    0.863451    0.537749    0.962249
C360    C    0.843700    0.499999    0.999999
Hf13    Hf    0.561850    0.561850    0.438150
Zr25    Zr    0.561850    0.438150    0.561850
Zr26    Zr    0.561850    0.438150    0.438151
Zr27    Zr    0.438151    0.561851    0.561849
Zr28    Zr    0.438151    0.561851    0.438149
Hf14    Hf    0.438151    0.438151    0.561849
O193    O    0.606802    0.464398    0.464400
O194    O    0.535598    0.535599    0.535601
O195    O    0.464399    0.606802    0.464399
O196    O    0.535598    0.393200    0.535601
O197    O    0.535598    0.535599    0.393201
O198    O    0.464399    0.464399    0.606801
O199    O    0.464399    0.464399    0.464401
O200    O    0.393199    0.535599    0.535601
C361    C    0.656301    0.500002    0.500000
O201    O    0.636550    0.537749    0.462252
O202    O    0.636550    0.462251    0.537750
O203    O    0.537752    0.636551    0.462250
O204    O    0.636550    0.537749    0.363449
O205    O    0.636550    0.363450    0.537750
O206    O    0.537752    0.462248    0.636549
C362    C    0.499998    0.656301    0.500002
C363    C    0.499998    0.499999    0.656301
C364    C    0.656301    0.500002    0.343698
C365    C    0.656301    0.343700    0.500000
O207    O    0.636550    0.462251    0.363448
O208    O    0.462250    0.636551    0.537751
O209    O    0.636550    0.363450    0.462251
O210    O    0.462250    0.537749    0.636550
O211    O    0.537752    0.636551    0.363447
O212    O    0.537751    0.363450    0.636550
C366    C    0.499998    0.656301    0.343699
C367    C    0.499998    0.343702    0.656301
O213    O    0.462249    0.363450    0.636552
O214    O    0.462250    0.636551    0.363449
O215    O    0.537752    0.462248    0.363451
O216    O    0.537751    0.363450    0.462248
O217    O    0.363451    0.636551    0.537748
O218    O    0.363451    0.537749    0.636551
C368    C    0.343700    0.499999    0.656301
C369    C    0.343700    0.656301    0.499999
C370    C    0.499998    0.499999    0.343702
C371    C    0.499998    0.343702    0.499999
O219    O    0.363451    0.636551    0.462249
O220    O    0.363451    0.462248    0.636552
O221    O    0.462250    0.537749    0.363452
O222    O    0.462249    0.363450    0.537749
O223    O    0.363451    0.462248    0.537749
O224    O    0.363451    0.537749    0.462249
C372    C    0.343700    0.499999    0.499999
Hf15    Hf    0.061850    0.938150    0.938150
Zr29    Zr    0.061850    0.061850    0.938151
Zr30    Zr    0.061850    0.938151    0.061850
Zr31    Zr    0.938151    0.061849    0.938149
Zr32    Zr    0.938151    0.938149    0.061849
Hf16    Hf    0.938151    0.061849    0.061849
O225    O    0.106802    0.964400    0.964400
O226    O    0.035598    0.035601    0.893201
O227    O    0.964399    0.964399    0.964399
O228    O    0.035598    0.035601    0.035601
O229    O    0.035598    0.893201    0.035601
O230    O    0.964399    0.106801    0.964401
O231    O    0.964399    0.964401    0.106801
O232    O    0.893199    0.035601    0.035601
C373    C    0.156301    0.000000    0.843698
O233    O    0.136550    0.962252    0.863449
O234    O    0.136550    0.037750    0.863448
O235    O    0.037752    0.962250    0.863447
O236    O    0.136550    0.863449    0.962252
O237    O    0.136550    0.037750    0.962251
O238    O    0.037752    0.136549    0.863451
C374    C    0.999998    0.000002    0.843699
C375    C    0.999998    0.156301    0.843702
C376    C    0.156301    0.843698    0.000000
C377    C    0.156301    1.000000    1.000000
O239    O    0.136550    0.863448    0.037750
O240    O    0.962250    0.037751    0.863449
O241    O    0.136550    0.962251    0.037750
O242    O    0.962250    0.136550    0.863452
O243    O    0.037752    0.863447    0.962250
O244    O    0.037751    0.136550    0.962248
C378    C    0.999998    0.843699    0.000002
C379    C    0.999998    0.156301    0.999999
O245    O    0.962249    0.136552    0.037749
O246    O    0.962250    0.863449    0.037751
O247    O    0.037752    0.863451    0.136549
O248    O    0.037751    0.962248    0.136550
O249    O    0.863451    0.037748    0.962249
O250    O    0.863451    0.136551    0.962249
C380    C    0.843700    0.156301    0.999999
C381    C    0.843700    0.999999    0.999999
C382    C    0.999998    0.843702    0.156301
C383    C    0.999998    0.999999    0.156301
O251    O    0.863451    0.962249    0.037748
O252    O    0.863451    0.136552    0.037749
O253    O    0.962250    0.863452    0.136550
O254    O    0.962249    0.037749    0.136552
O255    O    0.863451    0.037749    0.136552
O256    O    0.863451    0.962249    0.136551
C384    C    0.843700    0.999999    0.156301

loop_
_geom_bond_atom_site_label_1
_geom_bond_atom_site_label_2
_geom_bond_distance
C1    C24    0.07396
C1    C25    0.04844
C1    H1    0.04301
C2    C21    0.05230
C2    H2    0.05089
C2    C62    0.05853
C3    C22    0.07396
C3    H3    0.04301
C3    C99    0.04844
C4    C23    0.05230
C4    H4    0.05089
C4    C172    0.05853
C5    C19    0.07396
C5    H5    0.04301
C5    C65    0.04844
C6    C18    0.05230
C6    H6    0.05089
C6    C102    0.05853
C7    C17    0.07396
C7    C31    0.04844
C7    H7    0.04301
C8    C20    0.05230
C8    H8    0.05089
C8    C176    0.05853
C9    C14    0.05230
C9    H9    0.05089
C9    C105    0.05853
C10    C15    0.07396
C10    C34    0.04844
C10    H10    0.04301
C11    C16    0.05230
C11    H11    0.05089
C11    C71    0.05853
C12    C13    0.07396
C12    H12    0.04301
C12    C180    0.04844
C13    H13    0.04301
C13    C178    0.04844
C14    H14    0.05089
C14    C107    0.05853
C15    C36    0.04844
C15    H15    0.04301
C16    H16    0.05089
C16    C69    0.05853
C17    C29    0.04844
C17    H17    0.04301
C18    H18    0.05089
C18    C104    0.05853
C19    H19    0.04301
C19    C67    0.04844
C20    H20    0.05089
C20    C174    0.05853
C21    H21    0.05089
C21    C64    0.05853
C22    H22    0.04301
C22    C97    0.04844
C23    H23    0.05089
C23    C170    0.05853
C24    C27    0.04844
C24    H24    0.04301
C25    C94    0.04844
C25    C319    0.06647
C26    C38    0.05853
C26    C167    0.05853
C26    C359    0.04700
C27    C75    0.04844
C27    C307    0.06647
C28    C57    0.05853
C28    C148    0.05853
C28    C379    0.04700
C29    C41    0.04844
C29    C317    0.06647
C30    C78    0.05853
C30    C164    0.05853
C30    C383    0.04700
C31    C55    0.04844
C31    C353    0.06647
C32    C90    0.05853
C32    C152    0.05853
C32    C311    0.04700
C33    C52    0.05853
C33    C81    0.05853
C33    C323    0.04700
C34    C157    0.04844
C34    C305    0.06647
C35    C47    0.05853
C35    C86    0.05853
C35    C377    0.04700
C36    C156    0.04844
C36    C355    0.06647
C37    C60    0.07396
C37    C61    0.04844
C37    H25    0.04301
C38    C57    0.05230
C38    H26    0.05089
C39    C58    0.07396
C39    H27    0.04301
C39    C135    0.04844
C40    C59    0.05230
C40    H28    0.05089
C40    C208    0.05853
C41    C55    0.07396
C41    H29    0.04301
C42    C54    0.05230
C42    H30    0.05089
C42    C138    0.05853
C43    C53    0.07396
C43    C67    0.04844
C43    H31    0.04301
C44    C56    0.05230
C44    H32    0.05089
C44    C212    0.05853
C45    C50    0.05230
C45    H33    0.05089
C45    C141    0.05853
C46    C51    0.07396
C46    C70    0.04844
C46    H34    0.04301
C47    C52    0.05230
C47    H35    0.05089
C48    C49    0.07396
C48    H36    0.04301
C48    C216    0.04844
C49    H37    0.04301
C49    C214    0.04844
C50    H38    0.05089
C50    C143    0.05853
C51    C72    0.04844
C51    H39    0.04301
C52    H40    0.05089
C53    C65    0.04844
C53    H41    0.04301
C54    H42    0.05089
C54    C140    0.05853
C55    H43    0.04301
C56    H44    0.05089
C56    C210    0.05853
C57    H45    0.05089
C58    H46    0.04301
C58    C133    0.04844
C59    H47    0.05089
C59    C206    0.05853
C60    C63    0.04844
C60    H48    0.04301
C61    C130    0.04844
C61    C347    0.06647
C62    C203    0.05853
C62    C331    0.04700
C63    C111    0.04844
C63    C373    0.06647
C64    C184    0.05853
C64    C301    0.04700
C65    C341    0.06647
C66    C114    0.05853
C66    C200    0.05853
C66    C302    0.04700
C67    C329    0.06647
C68    C126    0.05853
C68    C188    0.05853
C68    C374    0.04700
C69    C117    0.05853
C69    C343    0.04700
C70    C193    0.04844
C70    C375    0.06647
C71    C122    0.05853
C71    C303    0.04700
C72    C192    0.04844
C72    C335    0.06647
C73    C96    0.07396
C73    C97    0.04844
C73    H49    0.04301
C74    C93    0.05230
C74    H50    0.05089
C74    C134    0.05853
C75    C94    0.07396
C75    H51    0.04301
C76    C95    0.05230
C76    H52    0.05089
C76    C244    0.05853
C77    C91    0.07396
C77    H53    0.04301
C77    C137    0.04844
C78    C90    0.05230
C78    H54    0.05089
C79    C89    0.07396
C79    C103    0.04844
C79    H55    0.04301
C80    C92    0.05230
C80    H56    0.05089
C80    C248    0.05853
C81    C86    0.05230
C81    H57    0.05089
C82    C87    0.07396
C82    C106    0.04844
C82    H58    0.04301
C83    C88    0.05230
C83    H59    0.05089
C83    C143    0.05853
C84    C85    0.07396
C84    H60    0.04301
C84    C252    0.04844
C85    H61    0.04301
C85    C250    0.04844
C86    H62    0.05089
C87    C108    0.04844
C87    H63    0.04301
C88    H64    0.05089
C88    C141    0.05853
C89    C101    0.04844
C89    H65    0.04301
C90    H66    0.05089
C91    H67    0.04301
C91    C139    0.04844
C92    H68    0.05089
C92    C246    0.05853
C93    H69    0.05089
C93    C136    0.05853
C94    H70    0.04301
C95    H71    0.05089
C95    C242    0.05853
C96    C99    0.04844
C96    H72    0.04301
C97    C293    0.06647
C98    C110    0.05853
C98    C239    0.05853
C98    C378    0.04700
C99    C325    0.06647
C100    C129    0.05853
C100    C220    0.05853
C100    C350    0.04700
C101    C113    0.04844
C101    C299    0.06647
C102    C236    0.05853
C102    C351    0.04700
C103    C127    0.04844
C103    C376    0.06647
C104    C224    0.05853
C104    C327    0.04700
C105    C124    0.05853
C105    C295    0.04700
C106    C229    0.04844
C106    C326    0.06647
C107    C119    0.05853
C107    C349    0.04700
C108    C228    0.04844
C108    C382    0.06647
C109    C132    0.07396
C109    C133    0.04844
C109    H73    0.04301
C110    C129    0.05230
C110    H74    0.05089
C111    C130    0.07396
C111    H75    0.04301
C112    C131    0.05230
C112    H76    0.05089
C112    C280    0.05853
C113    C127    0.07396
C113    H77    0.04301
C114    C126    0.05230
C114    H78    0.05089
C115    C125    0.07396
C115    C139    0.04844
C115    H79    0.04301
C116    C128    0.05230
C116    H80    0.05089
C116    C284    0.05853
C117    C122    0.05230
C117    H81    0.05089
C118    C123    0.07396
C118    C142    0.04844
C118    H82    0.04301
C119    C124    0.05230
C119    H83    0.05089
C120    C121    0.07396
C120    H84    0.04301
C120    C288    0.04844
C121    H85    0.04301
C121    C286    0.04844
C122    H86    0.05089
C123    C144    0.04844
C123    H87    0.04301
C124    H88    0.05089
C125    C137    0.04844
C125    H89    0.04301
C126    H90    0.05089
C127    H91    0.04301
C128    H92    0.05089
C128    C282    0.05853
C129    H93    0.05089
C130    H94    0.04301
C131    H95    0.05089
C131    C278    0.05853
C132    C135    0.04844
C132    H96    0.04301
C133    C368    0.06647
C134    C275    0.05853
C134    C312    0.04700
C135    C352    0.06647
C136    C256    0.05853
C136    C330    0.04700
C137    C369    0.06647
C138    C272    0.05853
C138    C334    0.04700
C139    C308    0.06647
C140    C260    0.05853
C140    C358    0.04700
C141    C372    0.04700
C142    C265    0.04844
C142    C354    0.06647
C143    C328    0.04700
C144    C264    0.04844
C144    C309    0.06647
C145    C168    0.07396
C145    C169    0.04844
C145    H97    0.04301
C146    C165    0.05230
C146    H98    0.05089
C146    C206    0.05853
C147    C166    0.07396
C147    H99    0.04301
C147    C243    0.04844
C148    C167    0.05230
C148    H100    0.05089
C149    C163    0.07396
C149    H101    0.04301
C149    C209    0.04844
C150    C162    0.05230
C150    H102    0.05089
C150    C246    0.05853
C151    C161    0.07396
C151    C175    0.04844
C151    H103    0.04301
C152    C164    0.05230
C152    H104    0.05089
C153    C158    0.05230
C153    H105    0.05089
C153    C249    0.05853
C154    C159    0.07396
C154    C178    0.04844
C154    H106    0.04301
C155    C160    0.05230
C155    H107    0.05089
C155    C215    0.05853
C156    C157    0.07396
C156    H108    0.04301
C157    H109    0.04301
C158    H110    0.05089
C158    C251    0.05853
C159    C180    0.04844
C159    H111    0.04301
C160    H112    0.05089
C160    C213    0.05853
C161    C173    0.04844
C161    H113    0.04301
C162    H114    0.05089
C162    C248    0.05853
C163    H115    0.04301
C163    C211    0.04844
C164    H116    0.05089
C165    H117    0.05089
C165    C208    0.05853
C166    H118    0.04301
C166    C241    0.04844
C167    H119    0.05089
C168    C171    0.04844
C168    H120    0.04301
C169    C238    0.04844
C169    C384    0.06647
C170    C182    0.05853
C170    C291    0.04700
C171    C219    0.04844
C171    C338    0.06647
C172    C201    0.05853
C172    C313    0.04700
C173    C185    0.04844
C173    C380    0.06647
C174    C222    0.05853
C174    C315    0.04700
C175    C199    0.04844
C175    C290    0.06647
C176    C234    0.05853
C176    C339    0.04700
C177    C196    0.05853
C177    C225    0.05853
C177    C381    0.04700
C178    C337    0.06647
C179    C191    0.05853
C179    C230    0.05853
C179    C314    0.04700
C180    C289    0.06647
C181    C204    0.07396
C181    C205    0.04844
C181    H121    0.04301
C182    C201    0.05230
C182    H122    0.05089
C183    C202    0.07396
C183    H123    0.04301
C183    C279    0.04844
C184    C203    0.05230
C184    H124    0.05089
C185    C199    0.07396
C185    H125    0.04301
C186    C198    0.05230
C186    H126    0.05089
C186    C282    0.05853
C187    C197    0.07396
C187    C211    0.04844
C187    H127    0.04301
C188    C200    0.05230
C188    H128    0.05089
C189    C194    0.05230
C189    H129    0.05089
C189    C285    0.05853
C190    C195    0.07396
C190    C214    0.04844
C190    H130    0.04301
C191    C196    0.05230
C191    H131    0.05089
C192    C193    0.07396
C192    H132    0.04301
C193    H133    0.04301
C194    H134    0.05089
C194    C287    0.05853
C195    C216    0.04844
C195    H135    0.04301
C196    H136    0.05089
C197    C209    0.04844
C197    H137    0.04301
C198    H138    0.05089
C198    C284    0.05853
C199    H139    0.04301
C200    H140    0.05089
C201    H141    0.05089
C202    H142    0.04301
C202    C277    0.04844
C203    H143    0.05089
C204    C207    0.04844
C204    H144    0.04301
C205    C274    0.04844
C205    C306    0.06647
C206    C371    0.04700
C207    C255    0.04844
C207    C318    0.06647
C208    C340    0.04700
C209    C304    0.06647
C210    C258    0.05853
C210    C346    0.04700
C211    C365    0.06647
C212    C270    0.05853
C212    C322    0.04700
C213    C261    0.05853
C213    C310    0.04700
C214    C316    0.06647
C215    C266    0.05853
C215    C342    0.04700
C216    C367    0.06647
C217    C240    0.07396
C217    C241    0.04844
C217    H145    0.04301
C218    C237    0.05230
C218    H146    0.05089
C218    C278    0.05853
C219    C238    0.07396
C219    H147    0.04301
C220    C239    0.05230
C220    H148    0.05089
C221    C235    0.07396
C221    H149    0.04301
C221    C281    0.04844
C222    C234    0.05230
C222    H150    0.05089
C223    C233    0.07396
C223    C247    0.04844
C223    H151    0.04301
C224    C236    0.05230
C224    H152    0.05089
C225    C230    0.05230
C225    H153    0.05089
C226    C231    0.07396
C226    C250    0.04844
C226    H154    0.04301
C227    C232    0.05230
C227    H155    0.05089
C227    C287    0.05853
C228    C229    0.07396
C228    H156    0.04301
C229    H157    0.04301
C230    H158    0.05089
C231    C252    0.04844
C231    H159    0.04301
C232    H160    0.05089
C232    C285    0.05853
C233    C245    0.04844
C233    H161    0.04301
C234    H162    0.05089
C235    H163    0.04301
C235    C283    0.04844
C236    H164    0.05089
C237    H165    0.05089
C237    C280    0.05853
C238    H166    0.04301
C239    H167    0.05089
C240    C243    0.04844
C240    H168    0.04301
C241    C356    0.06647
C242    C254    0.05853
C242    C324    0.04700
C243    C364    0.06647
C244    C273    0.05853
C244    C298    0.04700
C245    C257    0.04844
C245    C357    0.06647
C246    C292    0.04700
C247    C271    0.04844
C247    C321    0.06647
C248    C370    0.04700
C249    C268    0.05853
C249    C360    0.04700
C250    C366    0.06647
C251    C263    0.05853
C251    C294    0.04700
C252    C320    0.06647
C253    C276    0.07396
C253    C277    0.04844
C253    H169    0.04301
C254    C273    0.05230
C254    H170    0.05089
C255    C274    0.07396
C255    H171    0.04301
C256    C275    0.05230
C256    H172    0.05089
C257    C271    0.07396
C257    H173    0.04301
C258    C270    0.05230
C258    H174    0.05089
C259    C269    0.07396
C259    C283    0.04844
C259    H175    0.04301
C260    C272    0.05230
C260    H176    0.05089
C261    C266    0.05230
C261    H177    0.05089
C262    C267    0.07396
C262    C286    0.04844
C262    H178    0.04301
C263    C268    0.05230
C263    H179    0.05089
C264    C265    0.07396
C264    H180    0.04301
C265    H181    0.04301
C266    H182    0.05089
C267    C288    0.04844
C267    H183    0.04301
C268    H184    0.05089
C269    C281    0.04844
C269    H185    0.04301
C270    H186    0.05089
C271    H187    0.04301
C272    H188    0.05089
C273    H189    0.05089
C274    H190    0.04301
C275    H191    0.05089
C276    C279    0.04844
C276    H192    0.04301
C277    C336    0.06647
C278    C344    0.04700
C279    C297    0.06647
C280    C362    0.04700
C281    C333    0.06647
C282    C363    0.04700
C283    C345    0.06647
C284    C296    0.04700
C285    C332    0.04700
C286    C300    0.06647
C287    C361    0.04700
C288    C348    0.06647
Hf1    O1    0.11048
Hf1    O2    0.05830
Hf1    O3    0.11048
Hf1    O5    0.10428
Hf1    O9    0.10836
Hf1    O11    0.10836
Hf1    O12    0.08211
Hf1    O19    0.08211
Zr1    O1    0.05830
Zr1    O2    0.11048
Zr1    O4    0.11048
Zr1    O6    0.10428
Zr1    O10    0.10836
Zr1    O13    0.10836
Zr1    O14    0.08211
Zr1    O20    0.08211
Zr2    O1    0.11048
Zr2    O4    0.05830
Zr2    O5    0.10428
Zr2    O7    0.11048
Zr2    O15    0.08211
Zr2    O17    0.10836
Zr2    O23    0.08211
Zr2    O24    0.10836
Zr3    O2    0.11048
Zr3    O3    0.05830
Zr3    O6    0.10428
Zr3    O8    0.11048
Zr3    O16    0.10836
Zr3    O18    0.08211
Zr3    O25    0.10836
Zr3    O26    0.08211
Zr4    O3    0.11048
Zr4    O5    0.10428
Zr4    O7    0.11048
Zr4    O8    0.05830
Zr4    O22    0.08211
Zr4    O27    0.10836
Zr4    O29    0.08211
Zr4    O32    0.10836
Hf2    O4    0.11048
Hf2    O6    0.10428
Hf2    O7    0.05830
Hf2    O8    0.11048
Hf2    O21    0.08211
Hf2    O28    0.08211
Hf2    O30    0.10836
Hf2    O31    0.10836
C289    O9    0.04696
C289    O10    0.04696
O11    C290    0.04696
O12    C292    0.05692
O13    C293    0.04696
O14    C291    0.05693
C290    O16    0.04696
C291    O18    0.05692
C292    O15    0.05692
C293    O17    0.04696
O19    C294    0.05693
O20    C295    0.05692
C294    O22    0.05692
C295    O21    0.05692
O23    C298    0.05693
O24    C299    0.04696
O25    C297    0.04696
O26    C296    0.05692
C296    O28    0.05692
C297    O27    0.04696
C298    O29    0.05692
C299    O30    0.04696
O31    C300    0.04696
O32    C300    0.04696
Hf3    O33    0.11048
Hf3    O34    0.10428
Hf3    O35    0.11048
Hf3    O37    0.05830
Hf3    O41    0.08211
Hf3    O43    0.08211
Hf3    O44    0.10836
Hf3    O51    0.10836
Zr5    O33    0.11048
Zr5    O34    0.10428
Zr5    O36    0.05830
Zr5    O38    0.11048
Zr5    O42    0.08211
Zr5    O45    0.10836
Zr5    O46    0.08211
Zr5    O52    0.10836
Zr6    O33    0.05830
Zr6    O36    0.11048
Zr6    O37    0.11048
Zr6    O39    0.10428
Zr6    O47    0.10836
Zr6    O49    0.10836
Zr6    O55    0.08211
Zr6    O56    0.08211
Zr7    O34    0.10428
Zr7    O35    0.11048
Zr7    O38    0.11048
Zr7    O40    0.05830
Zr7    O48    0.08211
Zr7    O50    0.08211
Zr7    O57    0.10836
Zr7    O58    0.10836
Zr8    O35    0.05830
Zr8    O37    0.11048
Zr8    O39    0.10428
Zr8    O40    0.11048
Zr8    O54    0.10836
Zr8    O59    0.10836
Zr8    O61    0.08211
Zr8    O64    0.08211
Hf4    O36    0.11048
Hf4    O38    0.05830
Hf4    O39    0.10428
Hf4    O40    0.11048
Hf4    O53    0.10836
Hf4    O60    0.10836
Hf4    O62    0.08211
Hf4    O63    0.08211
C301    O41    0.05692
C301    O42    0.05692
O43    C302    0.05693
O44    C304    0.04696
O45    C305    0.04696
O46    C303    0.05693
C302    O48    0.05692
C303    O50    0.05692
C304    O47    0.04696
C305    O49    0.04696
O51    C306    0.04696
O52    C307    0.04696
C306    O54    0.04696
C307    O53    0.04696
O55    C310    0.05693
O56    C311    0.05692
O57    C309    0.04696
O58    C308    0.04696
C308    O60    0.04696
C309    O59    0.04696
C310    O61    0.05692
C311    O62    0.05692
O63    C312    0.05692
O64    C312    0.05692
Hf5    O65    0.11048
Hf5    O66    0.10428
Hf5    O67    0.11048
Hf5    O69    0.05830
Hf5    O73    0.08211
Hf5    O75    0.08211
Hf5    O76    0.10836
Hf5    O83    0.10836
Zr9    O65    0.11048
Zr9    O66    0.10428
Zr9    O68    0.05830
Zr9    O70    0.11048
Zr9    O74    0.08211
Zr9    O77    0.10836
Zr9    O78    0.08211
Zr9    O84    0.10836
Zr10    O65    0.05830
Zr10    O68    0.11048
Zr10    O69    0.11048
Zr10    O71    0.10428
Zr10    O79    0.10836
Zr10    O81    0.10836
Zr10    O87    0.08211
Zr10    O88    0.08211
Zr11    O66    0.10428
Zr11    O67    0.11048
Zr11    O70    0.11048
Zr11    O72    0.05830
Zr11    O80    0.08211
Zr11    O82    0.08211
Zr11    O89    0.10836
Zr11    O90    0.10836
Zr12    O67    0.05830
Zr12    O69    0.11048
Zr12    O71    0.10428
Zr12    O72    0.11048
Zr12    O86    0.10836
Zr12    O91    0.10836
Zr12    O93    0.08211
Zr12    O96    0.08211
Hf6    O68    0.11048
Hf6    O70    0.05830
Hf6    O71    0.10428
Hf6    O72    0.11048
Hf6    O85    0.10836
Hf6    O92    0.10836
Hf6    O94    0.08211
Hf6    O95    0.08211
C313    O73    0.05692
C313    O74    0.05692
O75    C314    0.05693
O76    C316    0.04696
O77    C317    0.04696
O78    C315    0.05693
C314    O80    0.05692
C315    O82    0.05692
C316    O79    0.04696
C317    O81    0.04696
O83    C318    0.04696
O84    C319    0.04696
C318    O86    0.04696
C319    O85    0.04696
O87    C322    0.05693
O88    C323    0.05692
O89    C321    0.04696
O90    C320    0.04696
C320    O92    0.04696
C321    O91    0.04696
C322    O93    0.05692
C323    O94    0.05692
O95    C324    0.05692
O96    C324    0.05692
Hf7    O97    0.11048
Hf7    O98    0.05830
Hf7    O99    0.11048
Hf7    O101    0.10428
Hf7    O105    0.10836
Hf7    O107    0.10836
Hf7    O108    0.08211
Hf7    O115    0.08211
Zr13    O97    0.05830
Zr13    O98    0.11048
Zr13    O100    0.11048
Zr13    O102    0.10428
Zr13    O106    0.10836
Zr13    O109    0.10836
Zr13    O110    0.08211
Zr13    O116    0.08211
Zr14    O97    0.11048
Zr14    O100    0.05830
Zr14    O101    0.10428
Zr14    O103    0.11048
Zr14    O111    0.08211
Zr14    O113    0.10836
Zr14    O119    0.08211
Zr14    O120    0.10836
Zr15    O98    0.11048
Zr15    O99    0.05830
Zr15    O102    0.10428
Zr15    O104    0.11048
Zr15    O112    0.10836
Zr15    O114    0.08211
Zr15    O121    0.10836
Zr15    O122    0.08211
Zr16    O99    0.11048
Zr16    O101    0.10428
Zr16    O103    0.11048
Zr16    O104    0.05830
Zr16    O118    0.08211
Zr16    O123    0.10836
Zr16    O125    0.08211
Zr16    O128    0.10836
Hf8    O100    0.11048
Hf8    O102    0.10428
Hf8    O103    0.05830
Hf8    O104    0.11048
Hf8    O117    0.08211
Hf8    O124    0.08211
Hf8    O126    0.10836
Hf8    O127    0.10836
C325    O105    0.04696
C325    O106    0.04696
O107    C326    0.04696
O108    C328    0.05692
O109    C329    0.04696
O110    C327    0.05693
C326    O112    0.04696
C327    O114    0.05692
C328    O111    0.05692
C329    O113    0.04696
O115    C330    0.05693
O116    C331    0.05692
C330    O118    0.05692
C331    O117    0.05692
O119    C334    0.05693
O120    C335    0.04696
O121    C333    0.04696
O122    C332    0.05692
C332    O124    0.05692
C333    O123    0.04696
C334    O125    0.05692
C335    O126    0.04696
O127    C336    0.04696
O128    C336    0.04696
Hf9    O129    0.11048
Hf9    O130    0.05830
Hf9    O131    0.11048
Hf9    O133    0.10428
Hf9    O137    0.10836
Hf9    O139    0.10836
Hf9    O140    0.08211
Hf9    O147    0.08211
Zr17    O129    0.05830
Zr17    O130    0.11048
Zr17    O132    0.11048
Zr17    O134    0.10428
Zr17    O138    0.10836
Zr17    O141    0.10836
Zr17    O142    0.08211
Zr17    O148    0.08211
Zr18    O129    0.11048
Zr18    O132    0.05830
Zr18    O133    0.10428
Zr18    O135    0.11048
Zr18    O143    0.08211
Zr18    O145    0.10836
Zr18    O151    0.08211
Zr18    O152    0.10836
Zr19    O130    0.11048
Zr19    O131    0.05830
Zr19    O134    0.10428
Zr19    O136    0.11048
Zr19    O144    0.10836
Zr19    O146    0.08211
Zr19    O153    0.10836
Zr19    O154    0.08211
Zr20    O131    0.11048
Zr20    O133    0.10428
Zr20    O135    0.11048
Zr20    O136    0.05830
Zr20    O150    0.08211
Zr20    O155    0.10836
Zr20    O157    0.08211
Zr20    O160    0.10836
Hf10    O132    0.11048
Hf10    O134    0.10428
Hf10    O135    0.05830
Hf10    O136    0.11048
Hf10    O149    0.08211
Hf10    O156    0.08211
Hf10    O158    0.10836
Hf10    O159    0.10836
C337    O137    0.04696
C337    O138    0.04696
O139    C338    0.04696
O140    C340    0.05692
O141    C341    0.04696
O142    C339    0.05693
C338    O144    0.04696
C339    O146    0.05692
C340    O143    0.05692
C341    O145    0.04696
O147    C342    0.05693
O148    C343    0.05692
C342    O150    0.05692
C343    O149    0.05692
O151    C346    0.05693
O152    C347    0.04696
O153    C345    0.04696
O154    C344    0.05692
C344    O156    0.05692
C345    O155    0.04696
C346    O157    0.05692
C347    O158    0.04696
O159    C348    0.04696
O160    C348    0.04696
Hf11    O161    0.11048
Hf11    O162    0.10428
Hf11    O163    0.11048
Hf11    O165    0.05830
Hf11    O169    0.08211
Hf11    O171    0.08211
Hf11    O172    0.10836
Hf11    O179    0.10836
Zr21    O161    0.11048
Zr21    O162    0.10428
Zr21    O164    0.05830
Zr21    O166    0.11048
Zr21    O170    0.08211
Zr21    O173    0.10836
Zr21    O174    0.08211
Zr21    O180    0.10836
Zr22    O161    0.05830
Zr22    O164    0.11048
Zr22    O165    0.11048
Zr22    O167    0.10428
Zr22    O175    0.10836
Zr22    O177    0.10836
Zr22    O183    0.08211
Zr22    O184    0.08211
Zr23    O162    0.10428
Zr23    O163    0.11048
Zr23    O166    0.11048
Zr23    O168    0.05830
Zr23    O176    0.08211
Zr23    O178    0.08211
Zr23    O185    0.10836
Zr23    O186    0.10836
Zr24    O163    0.05830
Zr24    O165    0.11048
Zr24    O167    0.10428
Zr24    O168    0.11048
Zr24    O182    0.10836
Zr24    O187    0.10836
Zr24    O189    0.08211
Zr24    O192    0.08211
Hf12    O164    0.11048
Hf12    O166    0.05830
Hf12    O167    0.10428
Hf12    O168    0.11048
Hf12    O181    0.10836
Hf12    O188    0.10836
Hf12    O190    0.08211
Hf12    O191    0.08211
C349    O169    0.05692
C349    O170    0.05692
O171    C350    0.05693
O172    C352    0.04696
O173    C353    0.04696
O174    C351    0.05693
C350    O176    0.05692
C351    O178    0.05692
C352    O175    0.04696
C353    O177    0.04696
O179    C354    0.04696
O180    C355    0.04696
C354    O182    0.04696
C355    O181    0.04696
O183    C358    0.05693
O184    C359    0.05692
O185    C357    0.04696
O186    C356    0.04696
C356    O188    0.04696
C357    O187    0.04696
C358    O189    0.05692
C359    O190    0.05692
O191    C360    0.05692
O192    C360    0.05692
Hf13    O193    0.11048
Hf13    O194    0.10428
Hf13    O195    0.11048
Hf13    O197    0.05830
Hf13    O201    0.08211
Hf13    O203    0.08211
Hf13    O204    0.10836
Hf13    O211    0.10836
Zr25    O193    0.11048
Zr25    O194    0.10428
Zr25    O196    0.05830
Zr25    O198    0.11048
Zr25    O202    0.08211
Zr25    O205    0.10836
Zr25    O206    0.08211
Zr25    O212    0.10836
Zr26    O193    0.05830
Zr26    O196    0.11048
Zr26    O197    0.11048
Zr26    O199    0.10428
Zr26    O207    0.10836
Zr26    O209    0.10836
Zr26    O215    0.08211
Zr26    O216    0.08211
Zr27    O194    0.10428
Zr27    O195    0.11048
Zr27    O198    0.11048
Zr27    O200    0.05830
Zr27    O208    0.08211
Zr27    O210    0.08211
Zr27    O217    0.10836
Zr27    O218    0.10836
Zr28    O195    0.05830
Zr28    O197    0.11048
Zr28    O199    0.10428
Zr28    O200    0.11048
Zr28    O214    0.10836
Zr28    O219    0.10836
Zr28    O221    0.08211
Zr28    O224    0.08211
Hf14    O196    0.11048
Hf14    O198    0.05830
Hf14    O199    0.10428
Hf14    O200    0.11048
Hf14    O213    0.10836
Hf14    O220    0.10836
Hf14    O222    0.08211
Hf14    O223    0.08211
C361    O201    0.05692
C361    O202    0.05692
O203    C362    0.05693
O204    C364    0.04696
O205    C365    0.04696
O206    C363    0.05693
C362    O208    0.05692
C363    O210    0.05692
C364    O207    0.04696
C365    O209    0.04696
O211    C366    0.04696
O212    C367    0.04696
C366    O214    0.04696
C367    O213    0.04696
O215    C370    0.05693
O216    C371    0.05692
O217    C369    0.04696
O218    C368    0.04696
C368    O220    0.04696
C369    O219    0.04696
C370    O221    0.05692
C371    O222    0.05692
O223    C372    0.05692
O224    C372    0.05692
Hf15    O225    0.05830
Hf15    O226    0.11048
Hf15    O227    0.10428
Hf15    O229    0.11048
Hf15    O233    0.10836
Hf15    O235    0.08211
Hf15    O236    0.10836
Hf15    O243    0.08211
Zr29    O225    0.11048
Zr29    O226    0.05830
Zr29    O228    0.10428
Zr29    O230    0.11048
Zr29    O234    0.10836
Zr29    O237    0.08211
Zr29    O238    0.10835
Zr29    O244    0.08211
Zr30    O225    0.11048
Zr30    O228    0.10428
Zr30    O229    0.05830
Zr30    O231    0.11048
Zr30    O239    0.10836
Zr30    O241    0.08211
Zr30    O247    0.10835
Zr30    O248    0.08211
Zr31    O226    0.11048
Zr31    O227    0.10428
Zr31    O230    0.05830
Zr31    O232    0.11048
Zr31    O240    0.08211
Zr31    O242    0.10835
Zr31    O249    0.08211
Zr31    O250    0.10836
Zr32    O227    0.10428
Zr32    O229    0.11048
Zr32    O231    0.05830
Zr32    O232    0.11048
Zr32    O246    0.08211
Zr32    O251    0.08211
Zr32    O253    0.10835
Zr32    O256    0.10836
Hf16    O228    0.10428
Hf16    O230    0.11048
Hf16    O231    0.11048
Hf16    O232    0.05830
Hf16    O245    0.08211
Hf16    O252    0.10836
Hf16    O254    0.08211
Hf16    O255    0.10836
C373    O233    0.04696
C373    O234    0.04696
O235    C374    0.05693
O236    C376    0.04696
O237    C377    0.05692
O238    C375    0.04696
C374    O240    0.05692
C375    O242    0.04696
C376    O239    0.04696
C377    O241    0.05692
O243    C378    0.05693
O244    C379    0.05693
C378    O246    0.05692
C379    O245    0.05692
O247    C382    0.04696
O248    C383    0.05693
O249    C381    0.05692
O250    C380    0.04696
C380    O252    0.04696
C381    O251    0.05692
C382    O253    0.04696
C383    O254    0.05692
O255    C384    0.04696
O256    C384    0.04696
