data_new_xtal_PM
_symmetry_space_group_name_H-M    'P1'
_cell_length_a    20.000000
_cell_length_b    20.000000
_cell_length_c    20.000000
_cell_angle_alpha    90.000000
_cell_angle_beta    90.000000
_cell_angle_gamma    90.000000
_symmetry_Int_Tables_number 1

loop_
_symmetry_equiv_pos_as_xyz
'x,y,z'

loop_
_atom_site_label
_atom_site_type_symbol
_atom_site_fract_x
_atom_site_fract_y
_atom_site_fract_z
C1    C    0.383691    0.409291    0.553873
C2    C    0.311145    0.385610    0.540128
N1    N    0.402111    0.404098    0.624974
C3    C    0.197875    0.651474    0.393300
C4    C    0.162062    0.702101    0.438554
C5    C    0.406886    0.477477    0.526238
C6    C    0.297868    0.312013    0.551033
C7    C    0.342326    0.261984    0.568563
N2    N    0.308458    0.204195    0.571700
C8    C    0.244755    0.219131    0.556087
C9    C    0.251253    0.684972    0.351329
N3    N    0.236695    0.284803    0.542951
O1    O    0.467243    0.483354    0.518153
H1    H    0.414228    0.372867    0.524802
H2    H    0.377031    0.440148    0.653103
H3    H    0.453558    0.411602    0.630664
H4    H    0.395382    0.266383    0.577966
H5    H    0.327674    0.157144    0.583577
H6    H    0.204737    0.182786    0.554072
H7    H    0.299676    0.394105    0.486474
H8    H    0.275311    0.412999    0.571787
H9    H    0.159789    0.631572    0.357970
H10    H    0.196784    0.726274    0.474362
H11    H    0.121875    0.676551    0.467131
H12    H    0.138675    0.742004    0.407792
O2    O    0.234531    0.736067    0.310755
O3    O    0.309083    0.665383    0.352513
H13    H    0.390605    0.357364    0.644910
C10    C    0.295734    0.539995    0.518926
C11    C    0.279305    0.549171    0.593851
P1    P    0.284703    0.619744    0.701769
C12    C    0.271650    0.601455    0.480805
N4    N    0.223995    0.595326    0.432111
N5    N    0.367544    0.531124    0.508551
O4    O    0.314275    0.603795    0.620870
H14    H    0.204769    0.548581    0.421906
H15    H    0.392435    0.570739    0.486615
H16    H    0.267909    0.497405    0.498026
O5    O    0.295691    0.656200    0.493825
H17    H    0.292629    0.505016    0.623776
H18    H    0.224190    0.555381    0.600046
O6    O    0.286753    0.555036    0.744632
O7    O    0.210105    0.641062    0.699163
O8    O    0.329639    0.681508    0.742923

loop_
_geom_bond_atom_site_label_1
_geom_bond_atom_site_label_2
_geom_bond_distance
C1    C2    0.07754
C1    N1    0.07363
C1    C5    0.07714
C1    H1    0.05572
C2    C6    0.07558
C2    H7    0.05552
C2    H8    0.05510
N1    H2    0.05215
N1    H3    0.05230
N1    H13    0.05210
C3    C4    0.07677
C3    C9    0.07572
C3    H9    0.05563
C3    N4    0.07308
C4    H10    0.05543
C4    H11    0.05554
C4    H12    0.05555
C5    O1    0.06118
C5    N5    0.06884
C6    C7    0.06919
C6    N3    0.06744
C7    N2    0.06705
C7    H4    0.05406
N2    C8    0.06727
N2    H5    0.05219
C8    N3    0.06746
C8    H6    0.05410
C9    O2    0.06735
C9    O3    0.06107
C10    C11    0.07725
C10    C12    0.07623
C10    N5    0.07310
C10    H16    0.05500
C11    O4    0.07026
C11    H17    0.05498
C11    H18    0.05581
P1    O4    0.08760
P1    O6    0.07764
P1    O7    0.07763
P1    O8    0.08676
C12    N4    0.06841
C12    O5    0.06119
N4    H14    0.05156
N5    H15    0.05167
