data_new_xtal_PM
_symmetry_space_group_name_H-M    'P1'
_cell_length_a    10.000000
_cell_length_b    10.000000
_cell_length_c    10.000000
_cell_angle_alpha    90.000000
_cell_angle_beta    90.000000
_cell_angle_gamma    90.000000
_symmetry_Int_Tables_number 1

loop_
_symmetry_equiv_pos_as_xyz
'x,y,z'

loop_
_atom_site_label
_atom_site_type_symbol
_atom_site_fract_x
_atom_site_fract_y
_atom_site_fract_z
C1    C    0.333997    0.227987    0.886047
C2    C    0.508417    0.541109    0.415445
O1    O    0.276693    0.288249    0.991966
O2    O    0.565708    0.480814    0.309537
O3    O    0.491934    0.661851    0.410763
O4    O    0.350473    0.107243    0.890692
C3    C    0.296899    0.416991    0.715382
C4    C    0.339482    0.492355    0.603444
C5    C    0.260555    0.598235    0.556728
C6    C    0.176095    0.448688    0.778824
C7    C    0.097983    0.554585    0.731442
C8    C    0.140061    0.629110    0.620773
C9    C    0.375882    0.311211    0.761948
C10    C    0.496322    0.280222    0.698065
C11    C    0.538400    0.354702    0.587443
C12    C    0.460232    0.460546    0.540160
F1    F    0.292122    0.656644    0.471115
H1    H    0.079142    0.710930    0.584616
H2    H    0.142382    0.391761    0.864613
H3    H    0.004672    0.578926    0.780592
C13    C    0.545539    0.352155    0.586153
C14    C    0.502957    0.276793    0.698092
C15    C    0.581893    0.170924    0.744820
C16    C    0.666352    0.320470    0.522723
C17    C    0.744474    0.214585    0.570118
C18    C    0.702396    0.140061    0.680787
C19    C    0.466547    0.457923    0.539575
C20    C    0.346098    0.488901    0.603447
C21    C    0.304021    0.414422    0.714070
C22    C    0.382197    0.308590    0.761364
F2    F    0.550326    0.112516    0.830434
H4    H    0.763322    0.058250    0.716953
H5    H    0.700065    0.377397    0.436934
H6    H    0.837791    0.190253    0.520976

loop_
_geom_bond_atom_site_label_1
_geom_bond_atom_site_label_2
_geom_bond_distance
C1    O1    0.13466
C1    O4    0.12195
C1    C9    0.15518
C1    C22    0.15610
C2    O2    0.13466
C2    O3    0.12195
C2    C12    0.15610
C2    C19    0.15518
C3    C4    0.14150
C3    C6    0.14008
C3    C9    0.13999
C4    C5    0.14008
C4    C12    0.13999
C5    C8    0.13991
C5    F1    0.10834
C6    C7    0.13986
C6    H2    0.10834
C7    C8    0.13990
C7    H3    0.10824
C8    H1    0.10823
C9    C10    0.13981
C10    C11    0.13984
C11    C12    0.13982
C13    C14    0.14150
C13    C16    0.14008
C13    C19    0.13999
C14    C15    0.14008
C14    C22    0.13999
C15    C18    0.13991
C15    F2    0.10834
C16    C17    0.13986
C16    H5    0.10834
C17    C18    0.13990
C17    H6    0.10824
C18    H4    0.10823
C19    C20    0.13981
C20    C21    0.13984
C21    C22    0.13982
