data_new_xtal_PM
_symmetry_space_group_name_H-M    'P1'
_cell_length_a    10.000000
_cell_length_b    10.000000
_cell_length_c    10.000000
_cell_angle_alpha    90.000000
_cell_angle_beta    90.000000
_cell_angle_gamma    90.000000
_symmetry_Int_Tables_number 1

loop_
_symmetry_equiv_pos_as_xyz
'x,y,z'

loop_
_atom_site_label
_atom_site_type_symbol
_atom_site_fract_x
_atom_site_fract_y
_atom_site_fract_z
C1    C    0.333997    0.227987    0.886047
C2    C    0.508417    0.541109    0.415445
C3    C    0.666983    0.317883    0.522607
C4    C    0.585018    0.169955    0.742764
C5    C    0.745254    0.213383    0.569638
C6    C    0.704514    0.139877    0.678909
H1    H    0.563197    0.110306    0.829051
H2    H    0.766965    0.059575    0.716019
H3    H    0.708117    0.372174    0.439994
H4    H    0.839514    0.190476    0.521515
O1    O    0.276693    0.288249    0.991966
O2    O    0.565708    0.480814    0.309537
O3    O    0.491934    0.661851    0.410763
O4    O    0.350473    0.107243    0.890692
C7    C    0.296899    0.416991    0.715382
C8    C    0.339482    0.492355    0.603444
C9    C    0.260555    0.598235    0.556728
C10    C    0.176095    0.448688    0.778824
C11    C    0.097983    0.554585    0.731442
C12    C    0.140061    0.629110    0.620773
C13    C    0.375882    0.311211    0.761948
C14    C    0.496322    0.280222    0.698065
C15    C    0.538400    0.354702    0.587443
C16    C    0.460232    0.460546    0.540160
F1    F    0.292122    0.656644    0.471115
H5    H    0.079142    0.710930    0.584616
H6    H    0.142382    0.391761    0.864613
H7    H    0.004672    0.578926    0.780592

loop_
_geom_bond_atom_site_label_1
_geom_bond_atom_site_label_2
_geom_bond_distance
C1    O1    0.13466
C1    O4    0.12195
C1    C13    0.15518
C2    O2    0.13466
C2    O3    0.12195
C2    C16    0.15610
C3    C5    0.13878
C3    H3    0.10707
C3    C15    0.14864
C4    C6    0.13879
C4    H1    0.10714
C4    C14    0.14840
C5    C6    0.13785
C5    H4    0.10828
C6    H2    0.10829
C7    C8    0.14150
C7    C10    0.14008
C7    C13    0.13999
C8    C9    0.14008
C8    C16    0.13999
C9    C12    0.13991
C9    F1    0.10834
C10    C11    0.13986
C10    H6    0.10834
C11    C12    0.13990
C11    H7    0.10824
C12    H5    0.10823
C13    C14    0.13981
C14    C15    0.13984
C15    C16    0.13982
