data_crystal

_cell_length_a 14.81740
_cell_length_b 14.81740
_cell_length_c 14.81740
_cell_angle_alpha 60.00000
_cell_angle_beta  60.00000
_cell_angle_gamma 60.00000

_symmetry_space_group_name_	'P 1'
_symmetry_space_group_name_H-M	'P 1'

loop_
_symmetry_equiv_pos_as_xyz
  x,y,z

loop_
_atom_site_label
_atom_site_type_symbol
_atom_site_fract_x
_atom_site_fract_y
_atom_site_fract_z
_atom_site_charge
C 	C 	0.55230 0.07750 0.44770 0.04700
O 	O 	0.72690 0.92450 0.27310 -0.62500
H 	H 	0.59077 0.14413 0.40923 0.02300
C 	C 	0.07750 0.55230 0.92250 0.09800
O 	O 	0.92450 0.72690 0.07550 -0.63000
H 	H 	0.14413 0.59077 0.85587 0.01800
C 	C 	0.44770 0.92250 0.55230 0.10400
O 	O 	0.27310 0.07550 0.72690 -0.67600
H 	H 	0.40923 0.85587 0.59077 0.02100
C 	C 	0.92250 0.44770 0.07750 0.09500
O 	O 	0.07550 0.27310 0.92450 -0.64200
H 	H 	0.85587 0.40923 0.14413 0.01800
C 	C 	0.44770 0.55230 0.07750 0.04800
O 	O 	0.27310 0.72690 0.92450 -0.62400
H 	H 	0.40923 0.59077 0.14413 0.02400
C 	C 	0.92250 0.07750 0.55230 0.09900
O 	O 	0.07550 0.92450 0.72690 -0.62900
H 	H 	0.85587 0.14413 0.59077 0.01900
C 	C 	0.55230 0.44770 0.92250 0.10400
O 	O 	0.72690 0.27310 0.07550 -0.67600
H 	H 	0.59077 0.40923 0.85587 0.02100
C 	C 	0.07750 0.92250 0.44770 0.09500
O 	O 	0.92450 0.07550 0.27310 -0.64200
H 	H 	0.14413 0.85587 0.40923 0.01800
C 	C 	0.07750 0.44770 0.55230 0.04800
O 	O 	0.92450 0.27310 0.72690 -0.62400
H 	H 	0.14413 0.40923 0.59077 0.02400
C 	C 	0.55230 0.92250 0.07750 0.09900
O 	O 	0.72690 0.07550 0.92450 -0.62900
H 	H 	0.59077 0.85587 0.14413 0.01900
C 	C 	0.92250 0.55230 0.44770 0.10400
O 	O 	0.07550 0.72690 0.27310 -0.67600
H 	H 	0.85587 0.59077 0.40923 0.02100
C 	C 	0.44770 0.07750 0.92250 0.09500
O 	O 	0.27310 0.92450 0.07550 -0.64200
H 	H 	0.40923 0.14413 0.85587 0.01800
C 	C 	0.07750 0.55230 0.44770 0.04800
O 	O 	0.92450 0.72690 0.27310 -0.62400
H 	H 	0.14413 0.59077 0.40923 0.02400
C 	C 	0.55230 0.07750 0.92250 0.09900
O 	O 	0.72690 0.92450 0.07550 -0.62900
H 	H 	0.59077 0.14413 0.85587 0.01900
C 	C 	0.92250 0.44770 0.55230 0.10400
O 	O 	0.07550 0.27310 0.72690 -0.67600
H 	H 	0.85587 0.40923 0.59077 0.02100
C 	C 	0.44770 0.92250 0.07750 0.09500
O 	O 	0.27310 0.07550 0.92450 -0.64200
H 	H 	0.40923 0.85587 0.14413 0.01800
C 	C 	0.55230 0.44770 0.07750 0.04800
O 	O 	0.72690 0.27310 0.92450 -0.62400
H 	H 	0.59077 0.40923 0.14413 0.02400
C 	C 	0.07750 0.92250 0.55230 0.09900
O 	O 	0.92450 0.07550 0.72690 -0.62900
H 	H 	0.14413 0.85587 0.59077 0.01900
C 	C 	0.44770 0.55230 0.92250 0.10400
O 	O 	0.27310 0.72690 0.07550 -0.67600
H 	H 	0.40923 0.59077 0.85587 0.02100
C 	C 	0.92250 0.07750 0.44770 0.09500
O 	O 	0.07550 0.92450 0.27310 -0.64200
H 	H 	0.85587 0.14413 0.40923 0.01800
C 	C 	0.44770 0.07750 0.55230 0.04800
O 	O 	0.27310 0.92450 0.72690 -0.62400
H 	H 	0.40923 0.14413 0.59077 0.02400
C 	C 	0.92250 0.55230 0.07750 0.09900
O 	O 	0.07550 0.72690 0.92450 -0.62900
H 	H 	0.85587 0.59077 0.14413 0.01900
C 	C 	0.55230 0.92250 0.44770 0.10400
O 	O 	0.72690 0.07550 0.27310 -0.67600
H 	H 	0.59077 0.85587 0.40923 0.02100
C 	C 	0.07750 0.44770 0.92250 0.09500
O 	O 	0.92450 0.27310 0.07550 -0.64200
H 	H 	0.14413 0.40923 0.85587 0.01800
Zr	Zr	0.87630 0.87630 0.12370 3.15700
Zr	Zr	0.12370 0.12370 0.87630 3.15300
Zr	Zr	0.12370 0.87630 0.87630 3.15700
Zr	Zr	0.87630 0.12370 0.12370 3.15300
Zr	Zr	0.87630 0.12370 0.87630 3.15700
Zr	Zr	0.12370 0.87630 0.12370 3.15300
C 	C 	0.68740 -0.00000 0.31260 0.50200
C 	C 	0.59340 0.00000 0.40660 -0.26200
C 	C 	-0.00000 0.68740 -0.00000 0.45400
C 	C 	-0.00000 0.59340 -0.00000 -0.30300
C 	C 	0.31260 0.00000 0.68740 0.50200
C 	C 	0.40660 0.00000 0.59340 -0.26200
C 	C 	-0.00000 0.31260 -0.00000 0.47800
C 	C 	-0.00000 0.40660 -0.00000 -0.30300
C 	C 	0.31260 0.68740 -0.00000 0.50200
C 	C 	0.40660 0.59340 -0.00000 -0.26200
C 	C 	-0.00000 0.00000 0.68740 0.45400
C 	C 	-0.00000 0.00000 0.59340 -0.30300
C 	C 	0.68740 0.31260 -0.00000 0.50200
C 	C 	0.59340 0.40660 -0.00000 -0.26200
C 	C 	-0.00000 -0.00000 0.31260 0.47800
C 	C 	-0.00000 0.00000 0.40660 -0.30300
C 	C 	-0.00000 0.31260 0.68740 0.50200
C 	C 	-0.00000 0.40660 0.59340 -0.26200
C 	C 	0.68740 0.00000 -0.00000 0.45400
C 	C 	0.59340 0.00000 -0.00000 -0.30300
C 	C 	-0.00000 0.68740 0.31260 0.50200
C 	C 	-0.00000 0.59340 0.40660 -0.26200
C 	C 	0.31260 0.00000 -0.00000 0.47800
C 	C 	0.40660 0.00000 -0.00000 -0.30300
O 	O 	0.78640 0.07120 0.07120 -1.16400
O 	O 	0.07120 0.78640 0.07120 -1.16400
O 	O 	0.07120 0.07120 0.78640 -1.16400
O 	O 	0.07120 0.07120 0.07120 -1.17600
O 	O 	0.92880 0.92880 0.21360 -1.57800
H 	H 	0.90640 0.90640 0.28079 0.61100
O 	O 	0.92880 0.92880 0.92880 -1.53100
H 	H 	0.90640 0.90640 0.90640 0.61600
O 	O 	0.21360 0.92880 0.92880 -1.57800
H 	H 	0.28079 0.90640 0.90640 0.61100
O 	O 	0.92880 0.21360 0.92880 -1.57800
H 	H 	0.90640 0.28079 0.90640 0.61100
