data_new_xtal_PM
_symmetry_space_group_name_H-M	'P1'
_cell_length_a	25.832000
_cell_length_b	25.832000
_cell_length_c	25.832000
_cell_angle_alpha	90.000000
_cell_angle_beta	90.000000
_cell_angle_gamma	90.000000
_symmetry_Int_Tables_number 1

loop_
_symmetry_equiv_pos_as_xyz
'x,y,z'

loop_
_atom_site_label
_atom_site_type_symbol
_atom_site_fract_x
_atom_site_fract_y
_atom_site_fract_z
Zn1	Zn	0.293380	0.206620	0.206620
Zn2	Zn	0.706620	0.793380	0.206620
Zn3	Zn	0.706620	0.206620	0.793380
Zn4	Zn	0.293380	0.793380	0.793380
Zn5	Zn	0.206620	0.293380	0.206620
Zn6	Zn	0.206620	0.706620	0.793380
Zn7	Zn	0.793380	0.706620	0.206620
Zn8	Zn	0.793380	0.293380	0.793380
Zn9	Zn	0.206620	0.206620	0.293380
Zn10	Zn	0.793380	0.206620	0.706620
Zn11	Zn	0.206620	0.793380	0.706620
Zn12	Zn	0.793380	0.793380	0.293380
Zn13	Zn	0.206620	0.293380	0.793380
Zn14	Zn	0.793380	0.706620	0.793380
Zn15	Zn	0.206620	0.706620	0.206620
Zn16	Zn	0.793380	0.293380	0.206620
Zn17	Zn	0.293380	0.206620	0.793380
Zn18	Zn	0.706620	0.206620	0.206620
Zn19	Zn	0.706620	0.793380	0.793380
Zn20	Zn	0.293380	0.793380	0.206620
Zn21	Zn	0.206620	0.206620	0.706620
Zn22	Zn	0.206620	0.793380	0.293380
Zn23	Zn	0.793380	0.206620	0.293380
Zn24	Zn	0.793380	0.793380	0.706620
Zn25	Zn	0.293380	0.706620	0.706620
Zn26	Zn	0.706620	0.293380	0.706620
Zn27	Zn	0.706620	0.706620	0.293380
Zn28	Zn	0.293380	0.293380	0.293380
Zn29	Zn	0.293380	0.706620	0.293380
Zn30	Zn	0.706620	0.706620	0.706620
Zn31	Zn	0.706620	0.293380	0.293380
Zn32	Zn	0.293380	0.293380	0.706620
O1	O	0.250000	0.250000	0.250000
O2	O	0.750000	0.750000	0.250000
O3	O	0.750000	0.250000	0.750000
O4	O	0.250000	0.750000	0.750000
O5	O	0.250000	0.250000	0.750000
O6	O	0.750000	0.750000	0.750000
O7	O	0.250000	0.750000	0.250000
O8	O	0.750000	0.250000	0.250000
O9	O	0.281870	0.218130	0.134000
O10	O	0.718130	0.781870	0.134000
O11	O	0.718130	0.218130	0.866000
O12	O	0.281870	0.781870	0.866000
O13	O	0.134000	0.281870	0.218130
O14	O	0.134000	0.718130	0.781870
O15	O	0.866000	0.718130	0.218130
O16	O	0.866000	0.281870	0.781870
O17	O	0.218130	0.134000	0.281870
O18	O	0.781870	0.134000	0.718130
O19	O	0.218130	0.866000	0.718130
O20	O	0.781870	0.866000	0.281870
O21	O	0.218130	0.281870	0.866000
O22	O	0.781870	0.718130	0.866000
O23	O	0.218130	0.718130	0.134000
O24	O	0.781870	0.281870	0.134000
O25	O	0.281870	0.134000	0.781870
O26	O	0.718130	0.134000	0.218130
O27	O	0.718130	0.866000	0.781870
O28	O	0.281870	0.866000	0.218130
O29	O	0.134000	0.218130	0.718130
O30	O	0.134000	0.781870	0.281870
O31	O	0.866000	0.218130	0.281870
O32	O	0.866000	0.781870	0.718130
O33	O	0.281870	0.718130	0.634000
O34	O	0.718130	0.281870	0.634000
O35	O	0.718130	0.718130	0.366000
O36	O	0.281870	0.281870	0.366000
O37	O	0.134000	0.781870	0.718130
O38	O	0.134000	0.218130	0.281870
O39	O	0.866000	0.218130	0.718130
O40	O	0.866000	0.781870	0.281870
O41	O	0.218130	0.634000	0.781870
O42	O	0.781870	0.634000	0.218130
O43	O	0.218130	0.366000	0.218130
O44	O	0.781870	0.366000	0.781870
O45	O	0.218130	0.781870	0.366000
O46	O	0.781870	0.218130	0.366000
O47	O	0.218130	0.218130	0.634000
O48	O	0.781870	0.781870	0.634000
O49	O	0.281870	0.634000	0.281870
O50	O	0.718130	0.634000	0.718130
O51	O	0.718130	0.366000	0.281870
O52	O	0.281870	0.366000	0.718130
O53	O	0.134000	0.718130	0.218130
O54	O	0.134000	0.281870	0.781870
O55	O	0.866000	0.718130	0.781870
O56	O	0.866000	0.281870	0.218130
O57	O	0.781870	0.218130	0.634000
O58	O	0.218130	0.781870	0.634000
O59	O	0.218130	0.218130	0.366000
O60	O	0.781870	0.781870	0.366000
O61	O	0.634000	0.281870	0.718130
O62	O	0.634000	0.718130	0.281870
O63	O	0.366000	0.718130	0.718130
O64	O	0.366000	0.281870	0.281870
O65	O	0.718130	0.134000	0.781870
O66	O	0.281870	0.134000	0.218130
O67	O	0.718130	0.866000	0.218130
O68	O	0.281870	0.866000	0.781870
O69	O	0.718130	0.281870	0.366000
O70	O	0.281870	0.718130	0.366000
O71	O	0.718130	0.718130	0.634000
O72	O	0.281870	0.281870	0.634000
O73	O	0.781870	0.134000	0.281870
O74	O	0.218130	0.134000	0.718130
O75	O	0.218130	0.866000	0.281870
O76	O	0.781870	0.866000	0.718130
O77	O	0.634000	0.218130	0.218130
O78	O	0.634000	0.781870	0.781870
O79	O	0.366000	0.218130	0.781870
O80	O	0.366000	0.781870	0.218130
O81	O	0.781870	0.718130	0.134000
O82	O	0.218130	0.281870	0.134000
O83	O	0.218130	0.718130	0.866000
O84	O	0.781870	0.281870	0.866000
O85	O	0.634000	0.781870	0.218130
O86	O	0.634000	0.218130	0.781870
O87	O	0.366000	0.218130	0.218130
O88	O	0.366000	0.781870	0.781870
O89	O	0.718130	0.634000	0.281870
O90	O	0.281870	0.634000	0.718130
O91	O	0.718130	0.366000	0.718130
O92	O	0.281870	0.366000	0.281870
O93	O	0.718130	0.781870	0.866000
O94	O	0.281870	0.218130	0.866000
O95	O	0.718130	0.218130	0.134000
O96	O	0.281870	0.781870	0.134000
O97	O	0.781870	0.634000	0.781870
O98	O	0.218130	0.634000	0.218130
O99	O	0.218130	0.366000	0.781870
O100	O	0.781870	0.366000	0.218130
O101	O	0.634000	0.718130	0.718130
O102	O	0.634000	0.281870	0.281870
O103	O	0.366000	0.718130	0.281870
O104	O	0.366000	0.281870	0.718130
C1	C	0.250000	0.250000	0.111300
C2	C	0.750000	0.750000	0.111300
C3	C	0.750000	0.250000	0.888700
C4	C	0.250000	0.750000	0.888700
C5	C	0.111300	0.250000	0.250000
C6	C	0.111300	0.750000	0.750000
C7	C	0.888700	0.750000	0.250000
C8	C	0.888700	0.250000	0.750000
C9	C	0.250000	0.111300	0.250000
C10	C	0.750000	0.111300	0.750000
C11	C	0.250000	0.888700	0.750000
C12	C	0.750000	0.888700	0.250000
C13	C	0.250000	0.250000	0.888700
C14	C	0.750000	0.750000	0.888700
C15	C	0.250000	0.750000	0.111300
C16	C	0.750000	0.250000	0.111300
C17	C	0.250000	0.111300	0.750000
C18	C	0.750000	0.111300	0.250000
C19	C	0.750000	0.888700	0.750000
C20	C	0.250000	0.888700	0.250000
C21	C	0.111300	0.250000	0.750000
C22	C	0.111300	0.750000	0.250000
C23	C	0.888700	0.250000	0.250000
C24	C	0.888700	0.750000	0.750000
C25	C	0.250000	0.750000	0.611300
C26	C	0.750000	0.250000	0.611300
C27	C	0.750000	0.750000	0.388700
C28	C	0.250000	0.250000	0.388700
C29	C	0.250000	0.611300	0.750000
C30	C	0.750000	0.611300	0.250000
C31	C	0.250000	0.388700	0.250000
C32	C	0.750000	0.388700	0.750000
C33	C	0.250000	0.750000	0.388700
C34	C	0.750000	0.250000	0.388700
C35	C	0.250000	0.250000	0.611300
C36	C	0.750000	0.750000	0.611300
C37	C	0.250000	0.611300	0.250000
C38	C	0.750000	0.611300	0.750000
C39	C	0.750000	0.388700	0.250000
C40	C	0.250000	0.388700	0.750000
C41	C	0.611300	0.250000	0.750000
C42	C	0.611300	0.750000	0.250000
C43	C	0.388700	0.750000	0.750000
C44	C	0.388700	0.250000	0.250000
C45	C	0.611300	0.250000	0.250000
C46	C	0.611300	0.750000	0.750000
C47	C	0.388700	0.250000	0.750000
C48	C	0.388700	0.750000	0.250000
C49	C	0.216834	0.283166	0.972920
C50	C	0.250000	0.250000	0.945841
C51	C	0.216834	0.283165	0.027080
C52	C	0.283166	0.216835	0.972920
C53	C	0.283166	0.216834	0.027079
C54	C	0.250000	0.250000	0.054159
C55	C	0.716834	0.783166	0.027079
C56	C	0.750000	0.750000	0.054159
C57	C	0.716835	0.783165	0.972920
C58	C	0.783166	0.716835	0.027080
C59	C	0.783166	0.716834	0.972921
C60	C	0.750000	0.750000	0.945841
C61	C	0.716834	0.216834	0.972920
C62	C	0.750000	0.250000	0.945841
C63	C	0.716834	0.216834	0.027080
C64	C	0.783165	0.283166	0.972921
C65	C	0.783166	0.283166	0.027080
C66	C	0.750000	0.250000	0.054159
C67	C	0.283166	0.783166	0.027079
C68	C	0.250000	0.750000	0.054159
C69	C	0.283165	0.783165	0.972920
C70	C	0.216834	0.716835	0.027080
C71	C	0.216834	0.716834	0.972921
C72	C	0.250000	0.750000	0.945841
C73	C	0.027079	0.283166	0.216834
C74	C	0.054159	0.250000	0.250000
C75	C	0.972920	0.283165	0.216835
C76	C	0.027080	0.216834	0.283165
C77	C	0.972921	0.216834	0.283166
C78	C	0.945841	0.250000	0.250000
C79	C	0.027080	0.716834	0.783166
C80	C	0.054159	0.750000	0.750000
C81	C	0.972920	0.716834	0.783166
C82	C	0.027079	0.783166	0.716835
C83	C	0.972920	0.783166	0.716834
C84	C	0.945841	0.750000	0.750000
C85	C	0.027080	0.783166	0.283166
C86	C	0.054159	0.750000	0.250000
C87	C	0.972920	0.783166	0.283166
C88	C	0.027079	0.716834	0.216835
C89	C	0.972920	0.716834	0.216834
C90	C	0.945841	0.750000	0.250000
C91	C	0.972920	0.216834	0.716834
C92	C	0.945841	0.250000	0.750000
C93	C	0.027080	0.216834	0.716834
C94	C	0.972920	0.283166	0.783166
C95	C	0.027080	0.283166	0.783166
C96	C	0.054159	0.250000	0.750000
C97	C	0.283166	0.027079	0.216834
C98	C	0.250000	0.054159	0.250000
C99	C	0.283165	0.972920	0.216835
C100	C	0.216834	0.027080	0.283165
C101	C	0.216834	0.972921	0.283166
C102	C	0.250000	0.945841	0.250000
C103	C	0.783166	0.027079	0.716834
C104	C	0.750000	0.054159	0.750000
C105	C	0.783165	0.972920	0.716835
C106	C	0.716835	0.027080	0.783166
C107	C	0.716834	0.972921	0.783166
C108	C	0.750000	0.945841	0.750000
C109	C	0.283166	0.027080	0.783166
C110	C	0.250000	0.054159	0.750000
C111	C	0.283166	0.972920	0.783166
C112	C	0.216835	0.027079	0.716834
C113	C	0.216834	0.972920	0.716834
C114	C	0.250000	0.945841	0.750000
C115	C	0.783166	0.027079	0.283166
C116	C	0.750000	0.054159	0.250000
C117	C	0.783165	0.972920	0.283165
C118	C	0.716835	0.027080	0.216834
C119	C	0.716834	0.972921	0.216834
C120	C	0.750000	0.945841	0.250000
C121	C	0.283166	0.716834	0.472920
C122	C	0.250000	0.750000	0.445841
C123	C	0.283166	0.716834	0.527080
C124	C	0.216834	0.783166	0.472920
C125	C	0.216834	0.783166	0.527080
C126	C	0.250000	0.750000	0.554159
C127	C	0.783166	0.216834	0.527080
C128	C	0.750000	0.250000	0.554159
C129	C	0.783166	0.216834	0.472920
C130	C	0.716834	0.283166	0.527080
C131	C	0.716834	0.283166	0.472920
C132	C	0.750000	0.250000	0.445841
C133	C	0.783166	0.783166	0.472920
C134	C	0.750000	0.750000	0.445841
C135	C	0.783166	0.783166	0.527080
C136	C	0.716834	0.716835	0.472921
C137	C	0.716834	0.716834	0.527080
C138	C	0.750000	0.750000	0.554159
C139	C	0.216834	0.216834	0.472920
C140	C	0.250000	0.250000	0.445841
C141	C	0.216834	0.216834	0.527080
C142	C	0.283165	0.283166	0.472921
C143	C	0.283166	0.283166	0.527080
C144	C	0.250000	0.250000	0.554159
C145	C	0.283166	0.527079	0.716834
C146	C	0.250000	0.554159	0.750000
C147	C	0.283165	0.472920	0.716835
C148	C	0.216834	0.527080	0.783165
C149	C	0.216834	0.472921	0.783166
C150	C	0.250000	0.445841	0.750000
C151	C	0.716834	0.527080	0.283166
C152	C	0.750000	0.554159	0.250000
C153	C	0.716835	0.472920	0.283166
C154	C	0.783165	0.527080	0.216834
C155	C	0.783166	0.472921	0.216834
C156	C	0.750000	0.445841	0.250000
C157	C	0.216834	0.472920	0.216834
C158	C	0.250000	0.445841	0.250000
C159	C	0.216834	0.527080	0.216834
C160	C	0.283166	0.472920	0.283166
C161	C	0.283166	0.527080	0.283166
C162	C	0.250000	0.554159	0.250000
C163	C	0.716834	0.472920	0.716834
C164	C	0.750000	0.445841	0.750000
C165	C	0.716834	0.527080	0.716835
C166	C	0.783166	0.472920	0.783165
C167	C	0.783166	0.527079	0.783166
C168	C	0.750000	0.554159	0.750000
C169	C	0.472920	0.216834	0.783166
C170	C	0.445841	0.250000	0.750000
C171	C	0.527080	0.216834	0.783166
C172	C	0.472921	0.283165	0.716834
C173	C	0.527080	0.283166	0.716834
C174	C	0.554159	0.250000	0.750000
C175	C	0.527079	0.783166	0.216834
C176	C	0.554159	0.750000	0.250000
C177	C	0.472920	0.783165	0.216835
C178	C	0.527080	0.716835	0.283166
C179	C	0.472921	0.716834	0.283166
C180	C	0.445841	0.750000	0.250000
C181	C	0.472920	0.783166	0.783166
C182	C	0.445841	0.750000	0.750000
C183	C	0.527080	0.783166	0.783165
C184	C	0.472920	0.716834	0.716835
C185	C	0.527079	0.716834	0.716834
C186	C	0.554159	0.750000	0.750000
C187	C	0.472920	0.216834	0.216834
C188	C	0.445841	0.250000	0.250000
C189	C	0.527080	0.216834	0.216834
C190	C	0.472921	0.283166	0.283165
C191	C	0.527080	0.283166	0.283166
C192	C	0.554159	0.250000	0.250000

loop_
_geom_bond_atom_site_label_1
_geom_bond_atom_site_label_2
_geom_bond_distance
O9	C1	0.05046
O10	C2	0.05046
O11	C3	0.05046
O12	C4	0.05046
O13	C5	0.05046
O14	C6	0.05046
O15	C7	0.05046
O16	C8	0.05046
O17	C9	0.05046
O18	C10	0.05046
O19	C11	0.05046
O20	C12	0.05046
O21	C13	0.05046
O22	C14	0.05046
O23	C15	0.05046
O24	C16	0.05046
O25	C17	0.05046
O26	C18	0.05046
O27	C19	0.05046
O28	C20	0.05046
O29	C21	0.05046
O30	C22	0.05046
O31	C23	0.05046
O32	C24	0.05046
O33	C25	0.05046
O34	C26	0.05046
O35	C27	0.05046
O36	C28	0.05046
O37	C6	0.05046
O38	C5	0.05046
O39	C8	0.05046
O40	C7	0.05046
O41	C29	0.05046
O42	C30	0.05046
O43	C31	0.05046
O44	C32	0.05046
O45	C33	0.05046
O46	C34	0.05046
O47	C35	0.05046
O48	C36	0.05046
O49	C37	0.05046
O50	C38	0.05046
O51	C39	0.05046
O52	C40	0.05046
O53	C22	0.05046
O54	C21	0.05046
O55	C24	0.05046
O56	C23	0.05046
O57	C26	0.05046
O58	C25	0.05046
O59	C28	0.05046
O60	C27	0.05046
O61	C41	0.05046
O62	C42	0.05046
O63	C43	0.05046
O64	C44	0.05046
O65	C10	0.05046
O66	C9	0.05046
O67	C12	0.05046
O68	C11	0.05046
O69	C34	0.05046
O70	C33	0.05046
O71	C36	0.05046
O72	C35	0.05046
O73	C18	0.05046
O74	C17	0.05046
O75	C20	0.05046
O76	C19	0.05046
O77	C45	0.05046
O78	C46	0.05046
O79	C47	0.05046
O80	C48	0.05046
O81	C2	0.05046
O82	C1	0.05046
O83	C4	0.05046
O84	C3	0.05046
O85	C42	0.05046
O86	C41	0.05046
O87	C44	0.05046
O88	C43	0.05046
O89	C30	0.05046
O90	C29	0.05046
O91	C32	0.05046
O92	C31	0.05046
O93	C14	0.05046
O94	C13	0.05046
O95	C16	0.05046
O96	C15	0.05046
O97	C38	0.05046
O98	C37	0.05046
O99	C40	0.05046
O100	C39	0.05046
O101	C46	0.05046
O102	C45	0.05046
O103	C48	0.05046
O104	C47	0.05046
C1	C54	0.05714
C2	C56	0.05714
C3	C62	0.05714
C4	C72	0.05714
C5	C74	0.05714
C6	C80	0.05714
C7	C90	0.05714
C8	C92	0.05714
C9	C98	0.05714
C10	C104	0.05714
C11	C114	0.05714
C12	C120	0.05714
C13	C50	0.05714
C14	C60	0.05714
C15	C68	0.05714
C16	C66	0.05714
C17	C110	0.05714
C18	C116	0.05714
C19	C108	0.05714
C20	C102	0.05714
C21	C96	0.05714
C22	C86	0.05714
C23	C78	0.05714
C24	C84	0.05714
C25	C126	0.05714
C26	C128	0.05714
C27	C134	0.05714
C28	C140	0.05714
C29	C146	0.05714
C30	C152	0.05714
C31	C158	0.05714
C32	C164	0.05714
C33	C122	0.05714
C34	C132	0.05714
C35	C144	0.05714
C36	C138	0.05714
C37	C162	0.05714
C38	C168	0.05714
C39	C156	0.05714
C40	C150	0.05714
C41	C174	0.05714
C42	C176	0.05714
C43	C182	0.05714
C44	C188	0.05714
C45	C192	0.05714
C46	C186	0.05714
C47	C170	0.05714
C48	C180	0.05714
C49	C50	0.05416
C49	C51	0.05416
C50	C52	0.05416
C51	C54	0.05416
C52	C53	0.05416
C53	C54	0.05416
C55	C56	0.05416
C55	C57	0.05416
C56	C58	0.05416
C57	C60	0.05416
C58	C59	0.05416
C59	C60	0.05416
C61	C62	0.05416
C61	C63	0.05416
C62	C64	0.05416
C63	C66	0.05416
C64	C65	0.05416
C65	C66	0.05416
C67	C68	0.05416
C67	C69	0.05416
C68	C70	0.05416
C69	C72	0.05416
C70	C71	0.05416
C71	C72	0.05416
C73	C74	0.05416
C73	C75	0.05416
C74	C76	0.05416
C75	C78	0.05416
C76	C77	0.05416
C77	C78	0.05416
C79	C80	0.05416
C79	C81	0.05416
C80	C82	0.05416
C81	C84	0.05416
C82	C83	0.05416
C83	C84	0.05416
C85	C86	0.05416
C85	C87	0.05416
C86	C88	0.05416
C87	C90	0.05416
C88	C89	0.05416
C89	C90	0.05416
C91	C92	0.05416
C91	C93	0.05416
C92	C94	0.05416
C93	C96	0.05416
C94	C95	0.05416
C95	C96	0.05416
C97	C98	0.05416
C97	C99	0.05416
C98	C100	0.05416
C99	C102	0.05416
C100	C101	0.05416
C101	C102	0.05416
C103	C104	0.05416
C103	C105	0.05416
C104	C106	0.05416
C105	C108	0.05416
C106	C107	0.05416
C107	C108	0.05416
C109	C110	0.05416
C109	C111	0.05416
C110	C112	0.05416
C111	C114	0.05416
C112	C113	0.05416
C113	C114	0.05416
C115	C116	0.05416
C115	C117	0.05416
C116	C118	0.05416
C117	C120	0.05416
C118	C119	0.05416
C119	C120	0.05416
C121	C122	0.05416
C121	C123	0.05416
C122	C124	0.05416
C123	C126	0.05416
C124	C125	0.05416
C125	C126	0.05416
C127	C128	0.05416
C127	C129	0.05416
C128	C130	0.05416
C129	C132	0.05416
C130	C131	0.05416
C131	C132	0.05416
C133	C134	0.05416
C133	C135	0.05416
C134	C136	0.05416
C135	C138	0.05416
C136	C137	0.05416
C137	C138	0.05416
C139	C140	0.05416
C139	C141	0.05416
C140	C142	0.05416
C141	C144	0.05416
C142	C143	0.05416
C143	C144	0.05416
C145	C146	0.05416
C145	C147	0.05416
C146	C148	0.05416
C147	C150	0.05416
C148	C149	0.05416
C149	C150	0.05416
C151	C152	0.05416
C151	C153	0.05416
C152	C154	0.05416
C153	C156	0.05416
C154	C155	0.05416
C155	C156	0.05416
C157	C158	0.05416
C157	C159	0.05416
C158	C160	0.05416
C159	C162	0.05416
C160	C161	0.05416
C161	C162	0.05416
C163	C164	0.05416
C163	C165	0.05416
C164	C166	0.05416
C165	C168	0.05416
C166	C167	0.05416
C167	C168	0.05416
C169	C170	0.05416
C169	C171	0.05416
C170	C172	0.05416
C171	C174	0.05416
C172	C173	0.05416
C173	C174	0.05416
C175	C176	0.05416
C175	C177	0.05416
C176	C178	0.05416
C177	C180	0.05416
C178	C179	0.05416
C179	C180	0.05416
C181	C182	0.05416
C181	C183	0.05416
C182	C184	0.05416
C183	C186	0.05416
C184	C185	0.05416
C185	C186	0.05416
C187	C188	0.05416
C187	C189	0.05416
C188	C190	0.05416
C189	C192	0.05416
C190	C191	0.05416
C191	C192	0.05416
