data_EMEHUB_C2H2_PM
_symmetry_space_group_name_H-M    'P1'
_cell_length_a    13.715000
_cell_length_b    13.715000
_cell_length_c    7.952260
_cell_angle_alpha    90.000000
_cell_angle_beta    90.000000
_cell_angle_gamma    90.000000
_symmetry_Int_Tables_number 1

loop_
_symmetry_equiv_pos_as_xyz
'x,y,z'

loop_
_atom_site_label
_atom_site_type_symbol
_atom_site_fract_x
_atom_site_fract_y
_atom_site_fract_z
C1    C    0.022700    0.199170    0.140400
C2    C    0.025060    0.300280    0.146900
H1    H    0.035300    0.157500    0.255100
H2    H    0.036600    0.336300    0.267400
C3    C    0.000000    0.647900    0.000000
C4    C    0.000000    0.544700    0.000000
N1    N    0.000000    0.148970    0.000000
Cu1    Cu    0.000000    0.000000    0.000000
Si1    Si    0.000000    0.000000    0.500000
F1    F    0.000000    0.000000    0.283000
F2    F    0.087800    0.087800    0.500000
H3    H    0.190100    0.190100    0.401200
C5    C    0.229300    0.229300    0.302400
C6    C    0.800830    0.022700    0.140400
C7    C    0.699720    0.025060    0.146900
H4    H    0.842500    0.035300    0.255100
H5    H    0.663700    0.036600    0.267400
C8    C    0.352100    0.000000    0.000000
C9    C    0.455300    0.000000    0.000000
N2    N    0.851030    0.000000    0.000000
F3    F    0.912200    0.087800    0.500000
H6    H    0.809900    0.190100    0.401200
C10    C    0.770700    0.229300    0.302400
C11    C    0.977300    0.800830    0.140400
C12    C    0.974940    0.699720    0.146900
H7    H    0.964700    0.842500    0.255100
H8    H    0.963400    0.663700    0.267400
C13    C    0.000000    0.352100    0.000000
C14    C    0.000000    0.455300    0.000000
N3    N    0.000000    0.851030    0.000000
F4    F    0.912200    0.912200    0.500000
H9    H    0.809900    0.809900    0.401200
C15    C    0.770700    0.770700    0.302400
C16    C    0.199170    0.977300    0.140400
C17    C    0.300280    0.974940    0.146900
H10    H    0.157500    0.964700    0.255100
H11    H    0.336300    0.963400    0.267400
C18    C    0.647900    0.000000    0.000000
C19    C    0.544700    0.000000    0.000000
N4    N    0.148970    0.000000    0.000000
F5    F    0.087800    0.912200    0.500000
H12    H    0.190100    0.809900    0.401200
C20    C    0.229300    0.770700    0.302400
C21    C    0.977300    0.199170    0.140400
C22    C    0.974940    0.300280    0.146900
H13    H    0.964700    0.157500    0.255100
H14    H    0.963400    0.336300    0.267400
C23    C    0.800830    0.977300    0.140400
C24    C    0.699720    0.974940    0.146900
H15    H    0.842500    0.964700    0.255100
H16    H    0.663700    0.963400    0.267400
C25    C    0.022700    0.800830    0.140400
C26    C    0.025060    0.699720    0.146900
H17    H    0.035300    0.842500    0.255100
H18    H    0.036600    0.663700    0.267400
C27    C    0.199170    0.022700    0.140400
C28    C    0.300280    0.025060    0.146900
H19    H    0.157500    0.035300    0.255100
H20    H    0.336300    0.036600    0.267400
C29    C    0.977300    0.800830    0.859600
C30    C    0.974940    0.699720    0.853100
H21    H    0.964700    0.842500    0.744900
H22    H    0.963400    0.663700    0.732600
F6    F    0.000000    0.000000    0.717000
H23    H    0.809900    0.809900    0.598800
C31    C    0.770700    0.770700    0.697600
C32    C    0.199170    0.977300    0.859600
C33    C    0.300280    0.974940    0.853100
H24    H    0.157500    0.964700    0.744900
H25    H    0.336300    0.963400    0.732600
H26    H    0.190100    0.809900    0.598800
C34    C    0.229300    0.770700    0.697600
C35    C    0.022700    0.199170    0.859600
C36    C    0.025060    0.300280    0.853100
H27    H    0.035300    0.157500    0.744900
H28    H    0.036600    0.336300    0.732600
H29    H    0.190100    0.190100    0.598800
C37    C    0.229300    0.229300    0.697600
C38    C    0.800830    0.022700    0.859600
C39    C    0.699720    0.025060    0.853100
H30    H    0.842500    0.035300    0.744900
H31    H    0.663700    0.036600    0.732600
H32    H    0.809900    0.190100    0.598800
C40    C    0.770700    0.229300    0.697600
C41    C    0.022700    0.800830    0.859600
C42    C    0.025060    0.699720    0.853100
H33    H    0.035300    0.842500    0.744900
H34    H    0.036600    0.663700    0.732600
C43    C    0.199170    0.022700    0.859600
C44    C    0.300280    0.025060    0.853100
H35    H    0.157500    0.035300    0.744900
H36    H    0.336300    0.036600    0.732600
C45    C    0.977300    0.199170    0.859600
C46    C    0.974940    0.300280    0.853100
H37    H    0.964700    0.157500    0.744900
H38    H    0.963400    0.336300    0.732600
C47    C    0.800830    0.977300    0.859600
C48    C    0.699720    0.974940    0.853100
H39    H    0.842500    0.964700    0.744900
H40    H    0.663700    0.963400    0.732600
C49    C    0.522700    0.699170    0.640400
C50    C    0.525060    0.800280    0.646900
H41    H    0.535300    0.657500    0.755100
H42    H    0.536600    0.836300    0.767400
C51    C    0.500000    0.147900    0.500000
C52    C    0.500000    0.044700    0.500000
N5    N    0.500000    0.648970    0.500000
Cu2    Cu    0.500000    0.500000    0.500000
Si2    Si    0.500000    0.500000    0.000000
F7    F    0.500000    0.500000    0.783000
F8    F    0.587800    0.587800    0.000000
H43    H    0.690100    0.690100    0.901200
C53    C    0.729300    0.729300    0.802400
C54    C    0.300830    0.522700    0.640400
C55    C    0.199720    0.525060    0.646900
H44    H    0.342500    0.535300    0.755100
H45    H    0.163700    0.536600    0.767400
C56    C    0.852100    0.500000    0.500000
C57    C    0.955300    0.500000    0.500000
N6    N    0.351030    0.500000    0.500000
F9    F    0.412200    0.587800    0.000000
H46    H    0.309900    0.690100    0.901200
C58    C    0.270700    0.729300    0.802400
C59    C    0.477300    0.300830    0.640400
C60    C    0.474940    0.199720    0.646900
H47    H    0.464700    0.342500    0.755100
H48    H    0.463400    0.163700    0.767400
C61    C    0.500000    0.852100    0.500000
C62    C    0.500000    0.955300    0.500000
N7    N    0.500000    0.351030    0.500000
F10    F    0.412200    0.412200    0.000000
H49    H    0.309900    0.309900    0.901200
C63    C    0.270700    0.270700    0.802400
C64    C    0.699170    0.477300    0.640400
C65    C    0.800280    0.474940    0.646900
H50    H    0.657500    0.464700    0.755100
H51    H    0.836300    0.463400    0.767400
C66    C    0.147900    0.500000    0.500000
C67    C    0.044700    0.500000    0.500000
N8    N    0.648970    0.500000    0.500000
F11    F    0.587800    0.412200    0.000000
H52    H    0.690100    0.309900    0.901200
C68    C    0.729300    0.270700    0.802400
C69    C    0.477300    0.699170    0.640400
C70    C    0.474940    0.800280    0.646900
H53    H    0.464700    0.657500    0.755100
H54    H    0.463400    0.836300    0.767400
C71    C    0.300830    0.477300    0.640400
C72    C    0.199720    0.474940    0.646900
H55    H    0.342500    0.464700    0.755100
H56    H    0.163700    0.463400    0.767400
C73    C    0.522700    0.300830    0.640400
C74    C    0.525060    0.199720    0.646900
H57    H    0.535300    0.342500    0.755100
H58    H    0.536600    0.163700    0.767400
C75    C    0.699170    0.522700    0.640400
C76    C    0.800280    0.525060    0.646900
H59    H    0.657500    0.535300    0.755100
H60    H    0.836300    0.536600    0.767400
C77    C    0.477300    0.300830    0.359600
C78    C    0.474940    0.199720    0.353100
H61    H    0.464700    0.342500    0.244900
H62    H    0.463400    0.163700    0.232600
F12    F    0.500000    0.500000    0.217000
H63    H    0.309900    0.309900    0.098800
C79    C    0.270700    0.270700    0.197600
C80    C    0.699170    0.477300    0.359600
C81    C    0.800280    0.474940    0.353100
H64    H    0.657500    0.464700    0.244900
H65    H    0.836300    0.463400    0.232600
H66    H    0.690100    0.309900    0.098800
C82    C    0.729300    0.270700    0.197600
C83    C    0.522700    0.699170    0.359600
C84    C    0.525060    0.800280    0.353100
H67    H    0.535300    0.657500    0.244900
H68    H    0.536600    0.836300    0.232600
H69    H    0.690100    0.690100    0.098800
C85    C    0.729300    0.729300    0.197600
C86    C    0.300830    0.522700    0.359600
C87    C    0.199720    0.525060    0.353100
H70    H    0.342500    0.535300    0.244900
H71    H    0.163700    0.536600    0.232600
H72    H    0.309900    0.690100    0.098800
C88    C    0.270700    0.729300    0.197600
C89    C    0.522700    0.300830    0.359600
C90    C    0.525060    0.199720    0.353100
H73    H    0.535300    0.342500    0.244900
H74    H    0.536600    0.163700    0.232600
C91    C    0.699170    0.522700    0.359600
C92    C    0.800280    0.525060    0.353100
H75    H    0.657500    0.535300    0.244900
H76    H    0.836300    0.536600    0.232600
C93    C    0.477300    0.699170    0.359600
C94    C    0.474940    0.800280    0.353100
H77    H    0.464700    0.657500    0.244900
H78    H    0.463400    0.836300    0.232600
C95    C    0.300830    0.477300    0.359600
C96    C    0.199720    0.474940    0.353100
H79    H    0.342500    0.464700    0.244900
H80    H    0.163700    0.463400    0.232600
