data_IRMOF-1_PM
_symmetry_space_group_name_H-M    'P1'
_cell_length_a    25.832000
_cell_length_b    25.832000
_cell_length_c    25.832000
_cell_angle_alpha    90.000000
_cell_angle_beta    90.000000
_cell_angle_gamma    90.000000
_symmetry_Int_Tables_number 1

loop_
_symmetry_equiv_pos_as_xyz
'x,y,z'

loop_
_atom_site_label
_atom_site_type_symbol
_atom_site_fract_x
_atom_site_fract_y
_atom_site_fract_z
C1    C    0.282900    0.217100    0.026900
C2    C    0.217100    0.282900    0.026900
C3    C    0.282900    0.217100    0.973100
C4    C    0.217100    0.282900    0.973100
C5    C    0.250000    0.250000    0.053800
C6    C    0.250000    0.250000    0.946200
H1    H    0.304900    0.195100    0.955200
H2    H    0.304900    0.195100    0.044800
H3    H    0.195100    0.304900    0.044800
H4    H    0.195100    0.304900    0.955200
C7    C    0.717100    0.782900    0.026900
C8    C    0.782900    0.717100    0.026900
C9    C    0.717100    0.782900    0.973100
C10    C    0.782900    0.717100    0.973100
C11    C    0.750000    0.750000    0.053800
C12    C    0.750000    0.750000    0.946200
H5    H    0.695100    0.804900    0.955200
H6    H    0.695100    0.804900    0.044800
H7    H    0.804900    0.695100    0.044800
H8    H    0.804900    0.695100    0.955200
C13    C    0.717100    0.217100    0.973100
C14    C    0.782900    0.282900    0.973100
C15    C    0.717100    0.217100    0.026900
C16    C    0.782900    0.282900    0.026900
C17    C    0.750000    0.250000    0.946200
C18    C    0.750000    0.250000    0.053800
H9    H    0.695100    0.195100    0.044800
H10    H    0.695100    0.195100    0.955200
H11    H    0.804900    0.304900    0.955200
H12    H    0.804900    0.304900    0.044800
C19    C    0.282900    0.782900    0.973100
C20    C    0.217100    0.717100    0.973100
C21    C    0.282900    0.782900    0.026900
C22    C    0.217100    0.717100    0.026900
C23    C    0.250000    0.750000    0.946200
C24    C    0.250000    0.750000    0.053800
H13    H    0.304900    0.804900    0.044800
H14    H    0.304900    0.804900    0.955200
H15    H    0.195100    0.695100    0.955200
H16    H    0.195100    0.695100    0.044800
C25    C    0.026900    0.282900    0.217100
C26    C    0.026900    0.217100    0.282900
C27    C    0.973100    0.282900    0.217100
C28    C    0.973100    0.217100    0.282900
C29    C    0.053800    0.250000    0.250000
C30    C    0.946200    0.250000    0.250000
H17    H    0.955200    0.304900    0.195100
H18    H    0.044800    0.304900    0.195100
H19    H    0.044800    0.195100    0.304900
H20    H    0.955200    0.195100    0.304900
C31    C    0.026900    0.717100    0.782900
C32    C    0.026900    0.782900    0.717100
C33    C    0.973100    0.717100    0.782900
C34    C    0.973100    0.782900    0.717100
C35    C    0.053800    0.750000    0.750000
C36    C    0.946200    0.750000    0.750000
H21    H    0.955200    0.695100    0.804900
H22    H    0.044800    0.695100    0.804900
H23    H    0.044800    0.804900    0.695100
H24    H    0.955200    0.804900    0.695100
C37    C    0.973100    0.717100    0.217100
C38    C    0.973100    0.782900    0.282900
C39    C    0.026900    0.717100    0.217100
C40    C    0.026900    0.782900    0.282900
C41    C    0.946200    0.750000    0.250000
C42    C    0.053800    0.750000    0.250000
H25    H    0.044800    0.695100    0.195100
H26    H    0.955200    0.695100    0.195100
H27    H    0.955200    0.804900    0.304900
H28    H    0.044800    0.804900    0.304900
C43    C    0.973100    0.282900    0.782900
C44    C    0.973100    0.217100    0.717100
C45    C    0.026900    0.282900    0.782900
C46    C    0.026900    0.217100    0.717100
C47    C    0.946200    0.250000    0.750000
C48    C    0.053800    0.250000    0.750000
H29    H    0.044800    0.304900    0.804900
H30    H    0.955200    0.304900    0.804900
H31    H    0.955200    0.195100    0.695100
H32    H    0.044800    0.195100    0.695100
C49    C    0.217100    0.026900    0.282900
C50    C    0.282900    0.026900    0.217100
C51    C    0.217100    0.973100    0.282900
C52    C    0.282900    0.973100    0.217100
C53    C    0.250000    0.053800    0.250000
C54    C    0.250000    0.946200    0.250000
H33    H    0.195100    0.955200    0.304900
H34    H    0.195100    0.044800    0.304900
H35    H    0.304900    0.044800    0.195100
H36    H    0.304900    0.955200    0.195100
C55    C    0.782900    0.026900    0.717100
C56    C    0.717100    0.026900    0.782900
C57    C    0.782900    0.973100    0.717100
C58    C    0.717100    0.973100    0.782900
C59    C    0.750000    0.053800    0.750000
C60    C    0.750000    0.946200    0.750000
H37    H    0.804900    0.955200    0.695100
H38    H    0.804900    0.044800    0.695100
H39    H    0.695100    0.044800    0.804900
H40    H    0.695100    0.955200    0.804900
C61    C    0.217100    0.973100    0.717100
C62    C    0.282900    0.973100    0.782900
C63    C    0.217100    0.026900    0.717100
C64    C    0.282900    0.026900    0.782900
C65    C    0.250000    0.946200    0.750000
C66    C    0.250000    0.053800    0.750000
H41    H    0.195100    0.044800    0.695100
H42    H    0.195100    0.955200    0.695100
H43    H    0.304900    0.955200    0.804900
H44    H    0.304900    0.044800    0.804900
C67    C    0.782900    0.973100    0.282900
C68    C    0.717100    0.973100    0.217100
C69    C    0.782900    0.026900    0.282900
C70    C    0.717100    0.026900    0.217100
C71    C    0.750000    0.946200    0.250000
C72    C    0.750000    0.053800    0.250000
H45    H    0.804900    0.044800    0.304900
H46    H    0.804900    0.955200    0.304900
H47    H    0.695100    0.955200    0.195100
H48    H    0.695100    0.044800    0.195100
C73    C    0.282900    0.717100    0.526900
C74    C    0.217100    0.782900    0.526900
C75    C    0.282900    0.717100    0.473100
C76    C    0.217100    0.782900    0.473100
C77    C    0.250000    0.750000    0.553800
C78    C    0.250000    0.750000    0.446200
H49    H    0.304900    0.695100    0.455200
H50    H    0.304900    0.695100    0.544800
H51    H    0.195100    0.804900    0.544800
H52    H    0.195100    0.804900    0.455200
C79    C    0.717100    0.282900    0.526900
C80    C    0.782900    0.217100    0.526900
C81    C    0.717100    0.282900    0.473100
C82    C    0.782900    0.217100    0.473100
C83    C    0.750000    0.250000    0.553800
C84    C    0.750000    0.250000    0.446200
H53    H    0.695100    0.304900    0.455200
H54    H    0.695100    0.304900    0.544800
H55    H    0.804900    0.195100    0.544800
H56    H    0.804900    0.195100    0.455200
C85    C    0.717100    0.717100    0.473100
C86    C    0.782900    0.782900    0.473100
C87    C    0.717100    0.717100    0.526900
C88    C    0.782900    0.782900    0.526900
C89    C    0.750000    0.750000    0.446200
C90    C    0.750000    0.750000    0.553800
H57    H    0.695100    0.695100    0.544800
H58    H    0.695100    0.695100    0.455200
H59    H    0.804900    0.804900    0.455200
H60    H    0.804900    0.804900    0.544800
C91    C    0.282900    0.282900    0.473100
C92    C    0.217100    0.217100    0.473100
C93    C    0.282900    0.282900    0.526900
C94    C    0.217100    0.217100    0.526900
C95    C    0.250000    0.250000    0.446200
C96    C    0.250000    0.250000    0.553800
H61    H    0.304900    0.304900    0.544800
H62    H    0.304900    0.304900    0.455200
H63    H    0.195100    0.195100    0.455200
H64    H    0.195100    0.195100    0.544800
C97    C    0.217100    0.526900    0.782900
C98    C    0.282900    0.526900    0.717100
C99    C    0.217100    0.473100    0.782900
C100    C    0.282900    0.473100    0.717100
C101    C    0.250000    0.553800    0.750000
C102    C    0.250000    0.446200    0.750000
H65    H    0.195100    0.455200    0.804900
H66    H    0.195100    0.544800    0.804900
H67    H    0.304900    0.544800    0.695100
H68    H    0.304900    0.455200    0.695100
C103    C    0.782900    0.526900    0.217100
C104    C    0.717100    0.526900    0.282900
C105    C    0.782900    0.473100    0.217100
C106    C    0.717100    0.473100    0.282900
C107    C    0.750000    0.553800    0.250000
C108    C    0.750000    0.446200    0.250000
H69    H    0.804900    0.455200    0.195100
H70    H    0.804900    0.544800    0.195100
H71    H    0.695100    0.544800    0.304900
H72    H    0.695100    0.455200    0.304900
C109    C    0.217100    0.473100    0.217100
C110    C    0.282900    0.473100    0.282900
C111    C    0.217100    0.526900    0.217100
C112    C    0.282900    0.526900    0.282900
C113    C    0.250000    0.446200    0.250000
C114    C    0.250000    0.553800    0.250000
H73    H    0.195100    0.544800    0.195100
H74    H    0.195100    0.455200    0.195100
H75    H    0.304900    0.455200    0.304900
H76    H    0.304900    0.544800    0.304900
C115    C    0.782900    0.473100    0.782900
C116    C    0.717100    0.473100    0.717100
C117    C    0.782900    0.526900    0.782900
C118    C    0.717100    0.526900    0.717100
C119    C    0.750000    0.446200    0.750000
C120    C    0.750000    0.553800    0.750000
H77    H    0.804900    0.544800    0.804900
H78    H    0.804900    0.455200    0.804900
H79    H    0.695100    0.455200    0.695100
H80    H    0.695100    0.544800    0.695100
C121    C    0.526900    0.282900    0.717100
C122    C    0.526900    0.217100    0.782900
C123    C    0.473100    0.282900    0.717100
C124    C    0.473100    0.217100    0.782900
C125    C    0.553800    0.250000    0.750000
C126    C    0.446200    0.250000    0.750000
H81    H    0.455200    0.304900    0.695100
H82    H    0.544800    0.304900    0.695100
H83    H    0.544800    0.195100    0.804900
H84    H    0.455200    0.195100    0.804900
C127    C    0.526900    0.717100    0.282900
C128    C    0.526900    0.782900    0.217100
C129    C    0.473100    0.717100    0.282900
C130    C    0.473100    0.782900    0.217100
C131    C    0.553800    0.750000    0.250000
C132    C    0.446200    0.750000    0.250000
H85    H    0.455200    0.695100    0.304900
H86    H    0.544800    0.695100    0.304900
H87    H    0.544800    0.804900    0.195100
H88    H    0.455200    0.804900    0.195100
C133    C    0.473100    0.717100    0.717100
C134    C    0.473100    0.782900    0.782900
C135    C    0.526900    0.717100    0.717100
C136    C    0.526900    0.782900    0.782900
C137    C    0.446200    0.750000    0.750000
C138    C    0.553800    0.750000    0.750000
H89    H    0.544800    0.695100    0.695100
H90    H    0.455200    0.695100    0.695100
H91    H    0.455200    0.804900    0.804900
H92    H    0.544800    0.804900    0.804900
C139    C    0.473100    0.282900    0.282900
C140    C    0.473100    0.217100    0.217100
C141    C    0.526900    0.282900    0.282900
C142    C    0.526900    0.217100    0.217100
C143    C    0.446200    0.250000    0.250000
C144    C    0.553800    0.250000    0.250000
H93    H    0.544800    0.304900    0.304900
H94    H    0.455200    0.304900    0.304900
H95    H    0.455200    0.195100    0.195100
H96    H    0.544800    0.195100    0.195100

loop_
_geom_bond_atom_site_label_1
_geom_bond_atom_site_label_2
_geom_bond_distance
C1    C3    0.05380
C1    C5    0.05374
C1    H2    0.03589
C2    C4    0.05380
C2    C5    0.05374
C2    H3    0.03589
C3    C6    0.05374
C3    H1    0.03589
C4    C6    0.05374
C4    H4    0.03589
C7    C9    0.05380
C7    C11    0.05374
C7    H6    0.03589
C8    C10    0.05380
C8    C11    0.05374
C8    H7    0.03589
C9    C12    0.05374
C9    H5    0.03589
C10    C12    0.05374
C10    H8    0.03589
C13    C15    0.05380
C13    C17    0.05374
C13    H10    0.03589
C14    C16    0.05380
C14    C17    0.05374
C14    H11    0.03589
C15    C18    0.05374
C15    H9    0.03589
C16    C18    0.05374
C16    H12    0.03589
C19    C21    0.05380
C19    C23    0.05374
C19    H14    0.03589
C20    C22    0.05380
C20    C23    0.05374
C20    H15    0.03589
C21    C24    0.05374
C21    H13    0.03589
C22    C24    0.05374
C22    H16    0.03589
C25    C27    0.05380
C25    C29    0.05374
C25    H18    0.03589
C26    C28    0.05380
C26    C29    0.05374
C26    H19    0.03589
C27    C30    0.05374
C27    H17    0.03589
C28    C30    0.05374
C28    H20    0.03589
C31    C33    0.05380
C31    C35    0.05374
C31    H22    0.03589
C32    C34    0.05380
C32    C35    0.05374
C32    H23    0.03589
C33    C36    0.05374
C33    H21    0.03589
C34    C36    0.05374
C34    H24    0.03589
C37    C39    0.05380
C37    C41    0.05374
C37    H26    0.03589
C38    C40    0.05380
C38    C41    0.05374
C38    H27    0.03589
C39    C42    0.05374
C39    H25    0.03589
C40    C42    0.05374
C40    H28    0.03589
C43    C45    0.05380
C43    C47    0.05374
C43    H30    0.03589
C44    C46    0.05380
C44    C47    0.05374
C44    H31    0.03589
C45    C48    0.05374
C45    H29    0.03589
C46    C48    0.05374
C46    H32    0.03589
C49    C51    0.05380
C49    C53    0.05374
C49    H34    0.03589
C50    C52    0.05380
C50    C53    0.05374
C50    H35    0.03589
C51    C54    0.05374
C51    H33    0.03589
C52    C54    0.05374
C52    H36    0.03589
C55    C57    0.05380
C55    C59    0.05374
C55    H38    0.03589
C56    C58    0.05380
C56    C59    0.05374
C56    H39    0.03589
C57    C60    0.05374
C57    H37    0.03589
C58    C60    0.05374
C58    H40    0.03589
C61    C63    0.05380
C61    C65    0.05374
C61    H42    0.03589
C62    C64    0.05380
C62    C65    0.05374
C62    H43    0.03589
C63    C66    0.05374
C63    H41    0.03589
C64    C66    0.05374
C64    H44    0.03589
C67    C69    0.05380
C67    C71    0.05374
C67    H46    0.03589
C68    C70    0.05380
C68    C71    0.05374
C68    H47    0.03589
C69    C72    0.05374
C69    H45    0.03589
C70    C72    0.05374
C70    H48    0.03589
C73    C75    0.05380
C73    C77    0.05374
C73    H50    0.03589
C74    C76    0.05380
C74    C77    0.05374
C74    H51    0.03589
C75    C78    0.05374
C75    H49    0.03589
C76    C78    0.05374
C76    H52    0.03589
C79    C81    0.05380
C79    C83    0.05374
C79    H54    0.03589
C80    C82    0.05380
C80    C83    0.05374
C80    H55    0.03589
C81    C84    0.05374
C81    H53    0.03589
C82    C84    0.05374
C82    H56    0.03589
C85    C87    0.05380
C85    C89    0.05374
C85    H58    0.03589
C86    C88    0.05380
C86    C89    0.05374
C86    H59    0.03589
C87    C90    0.05374
C87    H57    0.03589
C88    C90    0.05374
C88    H60    0.03589
C91    C93    0.05380
C91    C95    0.05374
C91    H62    0.03589
C92    C94    0.05380
C92    C95    0.05374
C92    H63    0.03589
C93    C96    0.05374
C93    H61    0.03589
C94    C96    0.05374
C94    H64    0.03589
C97    C99    0.05380
C97    C101    0.05374
C97    H66    0.03589
C98    C100    0.05380
C98    C101    0.05374
C98    H67    0.03589
C99    C102    0.05374
C99    H65    0.03589
C100    C102    0.05374
C100    H68    0.03589
C103    C105    0.05380
C103    C107    0.05374
C103    H70    0.03589
C104    C106    0.05380
C104    C107    0.05374
C104    H71    0.03589
C105    C108    0.05374
C105    H69    0.03589
C106    C108    0.05374
C106    H72    0.03589
C109    C111    0.05380
C109    C113    0.05374
C109    H74    0.03589
C110    C112    0.05380
C110    C113    0.05374
C110    H75    0.03589
C111    C114    0.05374
C111    H73    0.03589
C112    C114    0.05374
C112    H76    0.03589
C115    C117    0.05380
C115    C119    0.05374
C115    H78    0.03589
C116    C118    0.05380
C116    C119    0.05374
C116    H79    0.03589
C117    C120    0.05374
C117    H77    0.03589
C118    C120    0.05374
C118    H80    0.03589
C121    C123    0.05380
C121    C125    0.05374
C121    H82    0.03589
C122    C124    0.05380
C122    C125    0.05374
C122    H83    0.03589
C123    C126    0.05374
C123    H81    0.03589
C124    C126    0.05374
C124    H84    0.03589
C127    C129    0.05380
C127    C131    0.05374
C127    H86    0.03589
C128    C130    0.05380
C128    C131    0.05374
C128    H87    0.03589
C129    C132    0.05374
C129    H85    0.03589
C130    C132    0.05374
C130    H88    0.03589
C133    C135    0.05380
C133    C137    0.05374
C133    H90    0.03589
C134    C136    0.05380
C134    C137    0.05374
C134    H91    0.03589
C135    C138    0.05374
C135    H89    0.03589
C136    C138    0.05374
C136    H92    0.03589
C139    C141    0.05380
C139    C143    0.05374
C139    H94    0.03589
C140    C142    0.05380
C140    C143    0.05374
C140    H95    0.03589
C141    C144    0.05374
C141    H93    0.03589
C142    C144    0.05374
C142    H96    0.03589
