data_new_xtal_PM
_symmetry_space_group_name_H-M    'P1'
_cell_length_a    29.634800
_cell_length_b    29.634800
_cell_length_c    29.634800
_cell_angle_alpha    60.000000
_cell_angle_beta    60.000000
_cell_angle_gamma    60.000000
_symmetry_Int_Tables_number 1

loop_
_symmetry_equiv_pos_as_xyz
'x,y,z'

loop_
_atom_site_label
_atom_site_type_symbol
_atom_site_fract_x
_atom_site_fract_y
_atom_site_fract_z
C1    C    0.038750    0.276150    0.461250
O1    O    0.462250    0.363450    0.037750
H1    H    0.072065    0.295385    0.427935
C2    C    0.461250    0.223850    0.038750
O2    O    0.037750    0.136550    0.462250
H2    H    0.427935    0.204615    0.072065
C3    C    0.223850    0.276150    0.038750
O3    O    0.136550    0.363450    0.462250
H3    H    0.204615    0.295385    0.072065
C4    C    0.461250    0.038750    0.276150
O4    O    0.037750    0.462250    0.363450
H4    H    0.427935    0.072065    0.295385
C5    C    0.276150    0.223850    0.461250
O5    O    0.363450    0.136550    0.037750
H5    H    0.295385    0.204615    0.427935
C6    C    0.038750    0.461250    0.223850
O6    O    0.462250    0.037750    0.136550
H6    H    0.072065    0.427935    0.204615
C7    C    0.038750    0.223850    0.276150
O7    O    0.462250    0.136550    0.363450
H7    H    0.072065    0.204615    0.295385
C8    C    0.276150    0.461250    0.038750
O8    O    0.363450    0.037750    0.462250
H8    H    0.295385    0.427935    0.072065
C9    C    0.461250    0.276150    0.223850
O9    O    0.037750    0.363450    0.136550
H9    H    0.427935    0.295385    0.204615
C10    C    0.223850    0.038750    0.461250
O10    O    0.136550    0.462250    0.037750
H10    H    0.204615    0.072065    0.427935
C11    C    0.038750    0.276150    0.223850
O11    O    0.462250    0.363450    0.136550
H11    H    0.072065    0.295385    0.204615
C12    C    0.276150    0.038750    0.461250
O12    O    0.363450    0.462250    0.037750
H12    H    0.295385    0.072065    0.427935
C13    C    0.461250    0.223850    0.276150
O13    O    0.037750    0.136550    0.363450
H13    H    0.427935    0.204615    0.295385
C14    C    0.223850    0.461250    0.038750
O14    O    0.136550    0.037750    0.462250
H14    H    0.204615    0.427935    0.072065
C15    C    0.276150    0.223850    0.038750
O15    O    0.363450    0.136550    0.462250
H15    H    0.295385    0.204615    0.072065
C16    C    0.038750    0.461250    0.276150
O16    O    0.462250    0.037750    0.363450
H16    H    0.072065    0.427935    0.295385
C17    C    0.223850    0.276150    0.461250
O17    O    0.136550    0.363450    0.037750
H17    H    0.204615    0.295385    0.427935
C18    C    0.461250    0.038750    0.223850
O18    O    0.037750    0.462250    0.136550
H18    H    0.427935    0.072065    0.204615
C19    C    0.461250    0.276150    0.038750
O19    O    0.037750    0.363450    0.462250
H19    H    0.427935    0.295385    0.072065
C20    C    0.038750    0.223850    0.461250
O20    O    0.462250    0.136550    0.037750
H20    H    0.072065    0.204615    0.427935
Zr1    Zr    0.438150    0.438150    0.061850
Zr2    Zr    0.061850    0.061850    0.438150
Zr3    Zr    0.061850    0.438150    0.438150
Zr4    Zr    0.438150    0.061850    0.061850
Zr5    Zr    0.438150    0.061850    0.438150
Zr6    Zr    0.061850    0.438150    0.061850
C21    C    0.000000    0.343700    0.000000
C22    C    0.000000    0.296700    0.000000
C23    C    0.000000    0.156300    0.000000
C24    C    0.000000    0.203300    0.000000
C25    C    0.156300    0.343700    0.000000
C26    C    0.203300    0.296700    0.000000
C27    C    0.000000    0.000000    0.343700
C28    C    0.000000    0.000000    0.296700
C29    C    0.343700    0.156300    0.000000
C30    C    0.296700    0.203300    0.000000
C31    C    0.000000    0.000000    0.156300
C32    C    0.000000    0.000000    0.203300
C33    C    0.000000    0.156300    0.343700
C34    C    0.000000    0.203300    0.296700
C35    C    0.343700    0.000000    0.000000
C36    C    0.296700    0.000000    0.000000
C37    C    0.000000    0.343700    0.156300
C38    C    0.000000    0.296700    0.203300
C39    C    0.156300    0.000000    0.000000
C40    C    0.203300    0.000000    0.000000
O21    O    0.393200    0.035600    0.035600
O22    O    0.035600    0.393200    0.035600
O23    O    0.035600    0.035600    0.393200
O24    O    0.035600    0.035600    0.035600
O25    O    0.464400    0.464400    0.106800
H21    H    0.453200    0.453200    0.140395
O26    O    0.464400    0.464400    0.464400
H22    H    0.453200    0.453200    0.453200
O27    O    0.106800    0.464400    0.464400
H23    H    0.140395    0.453200    0.453200
O28    O    0.464400    0.106800    0.464400
H24    H    0.453200    0.140395    0.453200
C41    C    0.276150    0.038750    0.723850
O29    O    0.363450    0.462250    0.636550
H25    H    0.295385    0.072065    0.704615
C42    C    0.038750    0.276150    0.961250
O30    O    0.462250    0.363450    0.537750
H26    H    0.072065    0.295385    0.927935
C43    C    0.223850    0.461250    0.776150
O31    O    0.136550    0.037750    0.863450
H27    H    0.204615    0.427935    0.795385
C44    C    0.461250    0.223850    0.538750
O32    O    0.037750    0.136550    0.962250
H28    H    0.427935    0.204615    0.572065
C45    C    0.223850    0.276150    0.538750
O33    O    0.136550    0.363450    0.962250
H29    H    0.204615    0.295385    0.572065
C46    C    0.461250    0.038750    0.776150
O34    O    0.037750    0.462250    0.863450
H30    H    0.427935    0.072065    0.795385
C47    C    0.276150    0.223850    0.961250
O35    O    0.363450    0.136550    0.537750
H31    H    0.295385    0.204615    0.927935
C48    C    0.038750    0.461250    0.723850
O36    O    0.462250    0.037750    0.636550
H32    H    0.072065    0.427935    0.704615
C49    C    0.038750    0.223850    0.776150
O37    O    0.462250    0.136550    0.863450
H33    H    0.072065    0.204615    0.795385
C50    C    0.276150    0.461250    0.538750
O38    O    0.363450    0.037750    0.962250
H34    H    0.295385    0.427935    0.572065
C51    C    0.461250    0.276150    0.723850
O39    O    0.037750    0.363450    0.636550
H35    H    0.427935    0.295385    0.704615
C52    C    0.223850    0.038750    0.961250
O40    O    0.136550    0.462250    0.537750
H36    H    0.204615    0.072065    0.927935
C53    C    0.038750    0.276150    0.723850
O41    O    0.462250    0.363450    0.636550
H37    H    0.072065    0.295385    0.704615
C54    C    0.276150    0.038750    0.961250
O42    O    0.363450    0.462250    0.537750
H38    H    0.295385    0.072065    0.927935
C55    C    0.461250    0.223850    0.776150
O43    O    0.037750    0.136550    0.863450
H39    H    0.427935    0.204615    0.795385
C56    C    0.223850    0.461250    0.538750
O44    O    0.136550    0.037750    0.962250
H40    H    0.204615    0.427935    0.572065
C57    C    0.276150    0.223850    0.538750
O45    O    0.363450    0.136550    0.962250
H41    H    0.295385    0.204615    0.572065
C58    C    0.038750    0.461250    0.776150
O46    O    0.462250    0.037750    0.863450
H42    H    0.072065    0.427935    0.795385
C59    C    0.223850    0.276150    0.961250
O47    O    0.136550    0.363450    0.537750
H43    H    0.204615    0.295385    0.927935
C60    C    0.461250    0.038750    0.723850
O48    O    0.037750    0.462250    0.636550
H44    H    0.427935    0.072065    0.704615
C61    C    0.223850    0.038750    0.776150
O49    O    0.136550    0.462250    0.863450
H45    H    0.204615    0.072065    0.795385
C62    C    0.461250    0.276150    0.538750
O50    O    0.037750    0.363450    0.962250
H46    H    0.427935    0.295385    0.572065
C63    C    0.276150    0.461250    0.723850
O51    O    0.363450    0.037750    0.636550
H47    H    0.295385    0.427935    0.704615
C64    C    0.038750    0.223850    0.961250
O52    O    0.462250    0.136550    0.537750
H48    H    0.072065    0.204615    0.927935
Zr7    Zr    0.438150    0.438150    0.561850
Zr8    Zr    0.061850    0.061850    0.938150
Zr9    Zr    0.061850    0.438150    0.938150
Zr10    Zr    0.438150    0.061850    0.561850
Zr11    Zr    0.438150    0.061850    0.938150
Zr12    Zr    0.061850    0.438150    0.561850
C65    C    0.343700    0.000000    0.656300
C66    C    0.296700    0.000000    0.703300
C67    C    0.000000    0.343700    0.500000
C68    C    0.000000    0.296700    0.500000
C69    C    0.156300    0.000000    0.843700
C70    C    0.203300    0.000000    0.796700
C71    C    0.000000    0.156300    0.500000
C72    C    0.000000    0.203300    0.500000
C73    C    0.156300    0.343700    0.500000
C74    C    0.203300    0.296700    0.500000
C75    C    0.000000    0.000000    0.843700
C76    C    0.000000    0.000000    0.796700
C77    C    0.343700    0.156300    0.500000
C78    C    0.296700    0.203300    0.500000
C79    C    0.000000    0.000000    0.656300
C80    C    0.000000    0.000000    0.703300
C81    C    0.000000    0.156300    0.843700
C82    C    0.000000    0.203300    0.796700
C83    C    0.343700    0.000000    0.500000
C84    C    0.296700    0.000000    0.500000
C85    C    0.000000    0.343700    0.656300
C86    C    0.000000    0.296700    0.703300
C87    C    0.156300    0.000000    0.500000
C88    C    0.203300    0.000000    0.500000
O53    O    0.393200    0.035600    0.535600
O54    O    0.035600    0.393200    0.535600
O55    O    0.035600    0.035600    0.893200
O56    O    0.035600    0.035600    0.535600
O57    O    0.464400    0.464400    0.606800
H49    H    0.453200    0.453200    0.640395
O58    O    0.464400    0.464400    0.964400
H50    H    0.453200    0.453200    0.953200
O59    O    0.106800    0.464400    0.964400
H51    H    0.140395    0.453200    0.953200
O60    O    0.464400    0.106800    0.964400
H52    H    0.453200    0.140395    0.953200
C89    C    0.038750    0.776150    0.461250
O61    O    0.462250    0.863450    0.037750
H53    H    0.072065    0.795385    0.427935
C90    C    0.461250    0.723850    0.038750
O62    O    0.037750    0.636550    0.462250
H54    H    0.427935    0.704615    0.072065
C91    C    0.223850    0.776150    0.038750
O63    O    0.136550    0.863450    0.462250
H55    H    0.204615    0.795385    0.072065
C92    C    0.461250    0.538750    0.276150
O64    O    0.037750    0.962250    0.363450
H56    H    0.427935    0.572065    0.295385
C93    C    0.276150    0.723850    0.461250
O65    O    0.363450    0.636550    0.037750
H57    H    0.295385    0.704615    0.427935
C94    C    0.038750    0.961250    0.223850
O66    O    0.462250    0.537750    0.136550
H58    H    0.072065    0.927935    0.204615
C95    C    0.038750    0.723850    0.276150
O67    O    0.462250    0.636550    0.363450
H59    H    0.072065    0.704615    0.295385
C96    C    0.276150    0.961250    0.038750
O68    O    0.363450    0.537750    0.462250
H60    H    0.295385    0.927935    0.072065
C97    C    0.461250    0.776150    0.223850
O69    O    0.037750    0.863450    0.136550
H61    H    0.427935    0.795385    0.204615
C98    C    0.223850    0.538750    0.461250
O70    O    0.136550    0.962250    0.037750
H62    H    0.204615    0.572065    0.427935
C99    C    0.038750    0.776150    0.223850
O71    O    0.462250    0.863450    0.136550
H63    H    0.072065    0.795385    0.204615
C100    C    0.276150    0.538750    0.461250
O72    O    0.363450    0.962250    0.037750
H64    H    0.295385    0.572065    0.427935
C101    C    0.461250    0.723850    0.276150
O73    O    0.037750    0.636550    0.363450
H65    H    0.427935    0.704615    0.295385
C102    C    0.223850    0.961250    0.038750
O74    O    0.136550    0.537750    0.462250
H66    H    0.204615    0.927935    0.072065
C103    C    0.276150    0.723850    0.038750
O75    O    0.363450    0.636550    0.462250
H67    H    0.295385    0.704615    0.072065
C104    C    0.038750    0.961250    0.276150
O76    O    0.462250    0.537750    0.363450
H68    H    0.072065    0.927935    0.295385
C105    C    0.223850    0.776150    0.461250
O77    O    0.136550    0.863450    0.037750
H69    H    0.204615    0.795385    0.427935
C106    C    0.461250    0.538750    0.223850
O78    O    0.037750    0.962250    0.136550
H70    H    0.427935    0.572065    0.204615
C107    C    0.461250    0.776150    0.038750
O79    O    0.037750    0.863450    0.462250
H71    H    0.427935    0.795385    0.072065
C108    C    0.038750    0.723850    0.461250
O80    O    0.462250    0.636550    0.037750
H72    H    0.072065    0.704615    0.427935
Zr13    Zr    0.438150    0.938150    0.061850
Zr14    Zr    0.061850    0.561850    0.438150
Zr15    Zr    0.061850    0.938150    0.438150
Zr16    Zr    0.438150    0.561850    0.061850
Zr17    Zr    0.438150    0.561850    0.438150
Zr18    Zr    0.061850    0.938150    0.061850
C109    C    0.000000    0.843700    0.000000
C110    C    0.000000    0.796700    0.000000
C111    C    0.000000    0.656300    0.000000
C112    C    0.000000    0.703300    0.000000
C113    C    0.156300    0.843700    0.000000
C114    C    0.203300    0.796700    0.000000
C115    C    0.000000    0.500000    0.343700
C116    C    0.000000    0.500000    0.296700
C117    C    0.343700    0.656300    0.000000
C118    C    0.296700    0.703300    0.000000
C119    C    0.000000    0.500000    0.156300
C120    C    0.000000    0.500000    0.203300
C121    C    0.000000    0.656300    0.343700
C122    C    0.000000    0.703300    0.296700
C123    C    0.343700    0.500000    0.000000
C124    C    0.296700    0.500000    0.000000
C125    C    0.000000    0.843700    0.156300
C126    C    0.000000    0.796700    0.203300
C127    C    0.156300    0.500000    0.000000
C128    C    0.203300    0.500000    0.000000
O81    O    0.393200    0.535600    0.035600
O82    O    0.035600    0.893200    0.035600
O83    O    0.035600    0.535600    0.393200
O84    O    0.035600    0.535600    0.035600
O85    O    0.464400    0.964400    0.106800
H73    H    0.453200    0.953200    0.140395
O86    O    0.464400    0.964400    0.464400
H74    H    0.453200    0.953200    0.453200
O87    O    0.106800    0.964400    0.464400
H75    H    0.140395    0.953200    0.453200
O88    O    0.464400    0.606800    0.464400
H76    H    0.453200    0.640395    0.453200
C129    C    0.276150    0.538750    0.723850
O89    O    0.363450    0.962250    0.636550
H77    H    0.295385    0.572065    0.704615
C130    C    0.038750    0.776150    0.961250
O90    O    0.462250    0.863450    0.537750
H78    H    0.072065    0.795385    0.927935
C131    C    0.223850    0.961250    0.776150
O91    O    0.136550    0.537750    0.863450
H79    H    0.204615    0.927935    0.795385
C132    C    0.461250    0.723850    0.538750
O92    O    0.037750    0.636550    0.962250
H80    H    0.427935    0.704615    0.572065
C133    C    0.223850    0.776150    0.538750
O93    O    0.136550    0.863450    0.962250
H81    H    0.204615    0.795385    0.572065
C134    C    0.461250    0.538750    0.776150
O94    O    0.037750    0.962250    0.863450
H82    H    0.427935    0.572065    0.795385
C135    C    0.276150    0.723850    0.961250
O95    O    0.363450    0.636550    0.537750
H83    H    0.295385    0.704615    0.927935
C136    C    0.038750    0.961250    0.723850
O96    O    0.462250    0.537750    0.636550
H84    H    0.072065    0.927935    0.704615
C137    C    0.038750    0.723850    0.776150
O97    O    0.462250    0.636550    0.863450
H85    H    0.072065    0.704615    0.795385
C138    C    0.276150    0.961250    0.538750
O98    O    0.363450    0.537750    0.962250
H86    H    0.295385    0.927935    0.572065
C139    C    0.461250    0.776150    0.723850
O99    O    0.037750    0.863450    0.636550
H87    H    0.427935    0.795385    0.704615
C140    C    0.223850    0.538750    0.961250
O100    O    0.136550    0.962250    0.537750
H88    H    0.204615    0.572065    0.927935
C141    C    0.038750    0.776150    0.723850
O101    O    0.462250    0.863450    0.636550
H89    H    0.072065    0.795385    0.704615
C142    C    0.276150    0.538750    0.961250
O102    O    0.363450    0.962250    0.537750
H90    H    0.295385    0.572065    0.927935
C143    C    0.461250    0.723850    0.776150
O103    O    0.037750    0.636550    0.863450
H91    H    0.427935    0.704615    0.795385
C144    C    0.223850    0.961250    0.538750
O104    O    0.136550    0.537750    0.962250
H92    H    0.204615    0.927935    0.572065
C145    C    0.276150    0.723850    0.538750
O105    O    0.363450    0.636550    0.962250
H93    H    0.295385    0.704615    0.572065
C146    C    0.038750    0.961250    0.776150
O106    O    0.462250    0.537750    0.863450
H94    H    0.072065    0.927935    0.795385
C147    C    0.223850    0.776150    0.961250
O107    O    0.136550    0.863450    0.537750
H95    H    0.204615    0.795385    0.927935
C148    C    0.461250    0.538750    0.723850
O108    O    0.037750    0.962250    0.636550
H96    H    0.427935    0.572065    0.704615
C149    C    0.223850    0.538750    0.776150
O109    O    0.136550    0.962250    0.863450
H97    H    0.204615    0.572065    0.795385
C150    C    0.461250    0.776150    0.538750
O110    O    0.037750    0.863450    0.962250
H98    H    0.427935    0.795385    0.572065
C151    C    0.276150    0.961250    0.723850
O111    O    0.363450    0.537750    0.636550
H99    H    0.295385    0.927935    0.704615
C152    C    0.038750    0.723850    0.961250
O112    O    0.462250    0.636550    0.537750
H100    H    0.072065    0.704615    0.927935
Zr19    Zr    0.438150    0.938150    0.561850
Zr20    Zr    0.061850    0.561850    0.938150
Zr21    Zr    0.061850    0.938150    0.938150
Zr22    Zr    0.438150    0.561850    0.561850
Zr23    Zr    0.438150    0.561850    0.938150
Zr24    Zr    0.061850    0.938150    0.561850
C153    C    0.343700    0.500000    0.656300
C154    C    0.296700    0.500000    0.703300
C155    C    0.000000    0.843700    0.500000
C156    C    0.000000    0.796700    0.500000
C157    C    0.156300    0.500000    0.843700
C158    C    0.203300    0.500000    0.796700
C159    C    0.000000    0.656300    0.500000
C160    C    0.000000    0.703300    0.500000
C161    C    0.156300    0.843700    0.500000
C162    C    0.203300    0.796700    0.500000
C163    C    0.000000    0.500000    0.843700
C164    C    0.000000    0.500000    0.796700
C165    C    0.343700    0.656300    0.500000
C166    C    0.296700    0.703300    0.500000
C167    C    0.000000    0.500000    0.656300
C168    C    0.000000    0.500000    0.703300
C169    C    0.000000    0.656300    0.843700
C170    C    0.000000    0.703300    0.796700
C171    C    0.343700    0.500000    0.500000
C172    C    0.296700    0.500000    0.500000
C173    C    0.000000    0.843700    0.656300
C174    C    0.000000    0.796700    0.703300
C175    C    0.156300    0.500000    0.500000
C176    C    0.203300    0.500000    0.500000
O113    O    0.393200    0.535600    0.535600
O114    O    0.035600    0.893200    0.535600
O115    O    0.035600    0.535600    0.893200
O116    O    0.035600    0.535600    0.535600
O117    O    0.464400    0.964400    0.606800
H101    H    0.453200    0.953200    0.640395
O118    O    0.464400    0.964400    0.964400
H102    H    0.453200    0.953200    0.953200
O119    O    0.106800    0.964400    0.964400
H103    H    0.140395    0.953200    0.953200
O120    O    0.464400    0.606800    0.964400
H104    H    0.453200    0.640395    0.953200
C177    C    0.776150    0.038750    0.223850
O121    O    0.863450    0.462250    0.136550
H105    H    0.795385    0.072065    0.204615
C178    C    0.538750    0.276150    0.461250
O122    O    0.962250    0.363450    0.037750
H106    H    0.572065    0.295385    0.427935
C179    C    0.723850    0.461250    0.276150
O123    O    0.636550    0.037750    0.363450
H107    H    0.704615    0.427935    0.295385
C180    C    0.961250    0.223850    0.038750
O124    O    0.537750    0.136550    0.462250
H108    H    0.927935    0.204615    0.072065
C181    C    0.723850    0.276150    0.038750
O125    O    0.636550    0.363450    0.462250
H109    H    0.704615    0.295385    0.072065
C182    C    0.961250    0.038750    0.276150
O126    O    0.537750    0.462250    0.363450
H110    H    0.927935    0.072065    0.295385
C183    C    0.776150    0.223850    0.461250
O127    O    0.863450    0.136550    0.037750
H111    H    0.795385    0.204615    0.427935
C184    C    0.538750    0.461250    0.223850
O128    O    0.962250    0.037750    0.136550
H112    H    0.572065    0.427935    0.204615
C185    C    0.538750    0.223850    0.276150
O129    O    0.962250    0.136550    0.363450
H113    H    0.572065    0.204615    0.295385
C186    C    0.776150    0.461250    0.038750
O130    O    0.863450    0.037750    0.462250
H114    H    0.795385    0.427935    0.072065
C187    C    0.961250    0.276150    0.223850
O131    O    0.537750    0.363450    0.136550
H115    H    0.927935    0.295385    0.204615
C188    C    0.723850    0.038750    0.461250
O132    O    0.636550    0.462250    0.037750
H116    H    0.704615    0.072065    0.427935
C189    C    0.538750    0.276150    0.223850
O133    O    0.962250    0.363450    0.136550
H117    H    0.572065    0.295385    0.204615
C190    C    0.776150    0.038750    0.461250
O134    O    0.863450    0.462250    0.037750
H118    H    0.795385    0.072065    0.427935
C191    C    0.961250    0.223850    0.276150
O135    O    0.537750    0.136550    0.363450
H119    H    0.927935    0.204615    0.295385
C192    C    0.723850    0.461250    0.038750
O136    O    0.636550    0.037750    0.462250
H120    H    0.704615    0.427935    0.072065
C193    C    0.776150    0.223850    0.038750
O137    O    0.863450    0.136550    0.462250
H121    H    0.795385    0.204615    0.072065
C194    C    0.538750    0.461250    0.276150
O138    O    0.962250    0.037750    0.363450
H122    H    0.572065    0.427935    0.295385
C195    C    0.723850    0.276150    0.461250
O139    O    0.636550    0.363450    0.037750
H123    H    0.704615    0.295385    0.427935
C196    C    0.961250    0.038750    0.223850
O140    O    0.537750    0.462250    0.136550
H124    H    0.927935    0.072065    0.204615
C197    C    0.723850    0.038750    0.276150
O141    O    0.636550    0.462250    0.363450
H125    H    0.704615    0.072065    0.295385
C198    C    0.961250    0.276150    0.038750
O142    O    0.537750    0.363450    0.462250
H126    H    0.927935    0.295385    0.072065
C199    C    0.776150    0.461250    0.223850
O143    O    0.863450    0.037750    0.136550
H127    H    0.795385    0.427935    0.204615
C200    C    0.538750    0.223850    0.461250
O144    O    0.962250    0.136550    0.037750
H128    H    0.572065    0.204615    0.427935
Zr25    Zr    0.938150    0.438150    0.061850
Zr26    Zr    0.561850    0.061850    0.438150
Zr27    Zr    0.561850    0.438150    0.438150
Zr28    Zr    0.938150    0.061850    0.061850
Zr29    Zr    0.938150    0.061850    0.438150
Zr30    Zr    0.561850    0.438150    0.061850
C201    C    0.843700    0.000000    0.156300
C202    C    0.796700    0.000000    0.203300
C203    C    0.500000    0.343700    0.000000
C204    C    0.500000    0.296700    0.000000
C205    C    0.656300    0.000000    0.343700
C206    C    0.703300    0.000000    0.296700
C207    C    0.500000    0.156300    0.000000
C208    C    0.500000    0.203300    0.000000
C209    C    0.656300    0.343700    0.000000
C210    C    0.703300    0.296700    0.000000
C211    C    0.500000    0.000000    0.343700
C212    C    0.500000    0.000000    0.296700
C213    C    0.843700    0.156300    0.000000
C214    C    0.796700    0.203300    0.000000
C215    C    0.500000    0.000000    0.156300
C216    C    0.500000    0.000000    0.203300
C217    C    0.500000    0.156300    0.343700
C218    C    0.500000    0.203300    0.296700
C219    C    0.843700    0.000000    0.000000
C220    C    0.796700    0.000000    0.000000
C221    C    0.500000    0.343700    0.156300
C222    C    0.500000    0.296700    0.203300
C223    C    0.656300    0.000000    0.000000
C224    C    0.703300    0.000000    0.000000
O145    O    0.893200    0.035600    0.035600
O146    O    0.535600    0.393200    0.035600
O147    O    0.535600    0.035600    0.393200
O148    O    0.535600    0.035600    0.035600
O149    O    0.964400    0.464400    0.106800
H129    H    0.953200    0.453200    0.140395
O150    O    0.964400    0.464400    0.464400
H130    H    0.953200    0.453200    0.453200
O151    O    0.606800    0.464400    0.464400
H131    H    0.640395    0.453200    0.453200
O152    O    0.964400    0.106800    0.464400
H132    H    0.953200    0.140395    0.453200
C225    C    0.776150    0.038750    0.723850
O153    O    0.863450    0.462250    0.636550
H133    H    0.795385    0.072065    0.704615
C226    C    0.538750    0.276150    0.961250
O154    O    0.962250    0.363450    0.537750
H134    H    0.572065    0.295385    0.927935
C227    C    0.723850    0.461250    0.776150
O155    O    0.636550    0.037750    0.863450
H135    H    0.704615    0.427935    0.795385
C228    C    0.961250    0.223850    0.538750
O156    O    0.537750    0.136550    0.962250
H136    H    0.927935    0.204615    0.572065
C229    C    0.723850    0.276150    0.538750
O157    O    0.636550    0.363450    0.962250
H137    H    0.704615    0.295385    0.572065
C230    C    0.961250    0.038750    0.776150
O158    O    0.537750    0.462250    0.863450
H138    H    0.927935    0.072065    0.795385
C231    C    0.776150    0.223850    0.961250
O159    O    0.863450    0.136550    0.537750
H139    H    0.795385    0.204615    0.927935
C232    C    0.538750    0.461250    0.723850
O160    O    0.962250    0.037750    0.636550
H140    H    0.572065    0.427935    0.704615
C233    C    0.538750    0.223850    0.776150
O161    O    0.962250    0.136550    0.863450
H141    H    0.572065    0.204615    0.795385
C234    C    0.776150    0.461250    0.538750
O162    O    0.863450    0.037750    0.962250
H142    H    0.795385    0.427935    0.572065
C235    C    0.961250    0.276150    0.723850
O163    O    0.537750    0.363450    0.636550
H143    H    0.927935    0.295385    0.704615
C236    C    0.723850    0.038750    0.961250
O164    O    0.636550    0.462250    0.537750
H144    H    0.704615    0.072065    0.927935
C237    C    0.538750    0.276150    0.723850
O165    O    0.962250    0.363450    0.636550
H145    H    0.572065    0.295385    0.704615
C238    C    0.776150    0.038750    0.961250
O166    O    0.863450    0.462250    0.537750
H146    H    0.795385    0.072065    0.927935
C239    C    0.961250    0.223850    0.776150
O167    O    0.537750    0.136550    0.863450
H147    H    0.927935    0.204615    0.795385
C240    C    0.723850    0.461250    0.538750
O168    O    0.636550    0.037750    0.962250
H148    H    0.704615    0.427935    0.572065
C241    C    0.776150    0.223850    0.538750
O169    O    0.863450    0.136550    0.962250
H149    H    0.795385    0.204615    0.572065
C242    C    0.538750    0.461250    0.776150
O170    O    0.962250    0.037750    0.863450
H150    H    0.572065    0.427935    0.795385
C243    C    0.723850    0.276150    0.961250
O171    O    0.636550    0.363450    0.537750
H151    H    0.704615    0.295385    0.927935
C244    C    0.961250    0.038750    0.723850
O172    O    0.537750    0.462250    0.636550
H152    H    0.927935    0.072065    0.704615
C245    C    0.723850    0.038750    0.776150
O173    O    0.636550    0.462250    0.863450
H153    H    0.704615    0.072065    0.795385
C246    C    0.961250    0.276150    0.538750
O174    O    0.537750    0.363450    0.962250
H154    H    0.927935    0.295385    0.572065
C247    C    0.776150    0.461250    0.723850
O175    O    0.863450    0.037750    0.636550
H155    H    0.795385    0.427935    0.704615
C248    C    0.538750    0.223850    0.961250
O176    O    0.962250    0.136550    0.537750
H156    H    0.572065    0.204615    0.927935
Zr31    Zr    0.938150    0.438150    0.561850
Zr32    Zr    0.561850    0.061850    0.938150
Zr33    Zr    0.561850    0.438150    0.938150
Zr34    Zr    0.938150    0.061850    0.561850
Zr35    Zr    0.938150    0.061850    0.938150
Zr36    Zr    0.561850    0.438150    0.561850
C249    C    0.843700    0.000000    0.656300
C250    C    0.796700    0.000000    0.703300
C251    C    0.500000    0.343700    0.500000
C252    C    0.500000    0.296700    0.500000
C253    C    0.656300    0.000000    0.843700
C254    C    0.703300    0.000000    0.796700
C255    C    0.500000    0.156300    0.500000
C256    C    0.500000    0.203300    0.500000
C257    C    0.656300    0.343700    0.500000
C258    C    0.703300    0.296700    0.500000
C259    C    0.500000    0.000000    0.843700
C260    C    0.500000    0.000000    0.796700
C261    C    0.843700    0.156300    0.500000
C262    C    0.796700    0.203300    0.500000
C263    C    0.500000    0.000000    0.656300
C264    C    0.500000    0.000000    0.703300
C265    C    0.500000    0.156300    0.843700
C266    C    0.500000    0.203300    0.796700
C267    C    0.843700    0.000000    0.500000
C268    C    0.796700    0.000000    0.500000
C269    C    0.500000    0.343700    0.656300
C270    C    0.500000    0.296700    0.703300
C271    C    0.656300    0.000000    0.500000
C272    C    0.703300    0.000000    0.500000
O177    O    0.893200    0.035600    0.535600
O178    O    0.535600    0.393200    0.535600
O179    O    0.535600    0.035600    0.893200
O180    O    0.535600    0.035600    0.535600
O181    O    0.964400    0.464400    0.606800
H157    H    0.953200    0.453200    0.640395
O182    O    0.964400    0.464400    0.964400
H158    H    0.953200    0.453200    0.953200
O183    O    0.606800    0.464400    0.964400
H159    H    0.640395    0.453200    0.953200
O184    O    0.964400    0.106800    0.964400
H160    H    0.953200    0.140395    0.953200
C273    C    0.776150    0.538750    0.223850
O185    O    0.863450    0.962250    0.136550
H161    H    0.795385    0.572065    0.204615
C274    C    0.538750    0.776150    0.461250
O186    O    0.962250    0.863450    0.037750
H162    H    0.572065    0.795385    0.427935
C275    C    0.723850    0.961250    0.276150
O187    O    0.636550    0.537750    0.363450
H163    H    0.704615    0.927935    0.295385
C276    C    0.961250    0.723850    0.038750
O188    O    0.537750    0.636550    0.462250
H164    H    0.927935    0.704615    0.072065
C277    C    0.723850    0.776150    0.038750
O189    O    0.636550    0.863450    0.462250
H165    H    0.704615    0.795385    0.072065
C278    C    0.961250    0.538750    0.276150
O190    O    0.537750    0.962250    0.363450
H166    H    0.927935    0.572065    0.295385
C279    C    0.776150    0.723850    0.461250
O191    O    0.863450    0.636550    0.037750
H167    H    0.795385    0.704615    0.427935
C280    C    0.538750    0.961250    0.223850
O192    O    0.962250    0.537750    0.136550
H168    H    0.572065    0.927935    0.204615
C281    C    0.538750    0.723850    0.276150
O193    O    0.962250    0.636550    0.363450
H169    H    0.572065    0.704615    0.295385
C282    C    0.776150    0.961250    0.038750
O194    O    0.863450    0.537750    0.462250
H170    H    0.795385    0.927935    0.072065
C283    C    0.961250    0.776150    0.223850
O195    O    0.537750    0.863450    0.136550
H171    H    0.927935    0.795385    0.204615
C284    C    0.723850    0.538750    0.461250
O196    O    0.636550    0.962250    0.037750
H172    H    0.704615    0.572065    0.427935
C285    C    0.538750    0.776150    0.223850
O197    O    0.962250    0.863450    0.136550
H173    H    0.572065    0.795385    0.204615
C286    C    0.776150    0.538750    0.461250
O198    O    0.863450    0.962250    0.037750
H174    H    0.795385    0.572065    0.427935
C287    C    0.961250    0.723850    0.276150
O199    O    0.537750    0.636550    0.363450
H175    H    0.927935    0.704615    0.295385
C288    C    0.723850    0.961250    0.038750
O200    O    0.636550    0.537750    0.462250
H176    H    0.704615    0.927935    0.072065
C289    C    0.776150    0.723850    0.038750
O201    O    0.863450    0.636550    0.462250
H177    H    0.795385    0.704615    0.072065
C290    C    0.538750    0.961250    0.276150
O202    O    0.962250    0.537750    0.363450
H178    H    0.572065    0.927935    0.295385
C291    C    0.723850    0.776150    0.461250
O203    O    0.636550    0.863450    0.037750
H179    H    0.704615    0.795385    0.427935
C292    C    0.961250    0.538750    0.223850
O204    O    0.537750    0.962250    0.136550
H180    H    0.927935    0.572065    0.204615
C293    C    0.723850    0.538750    0.276150
O205    O    0.636550    0.962250    0.363450
H181    H    0.704615    0.572065    0.295385
C294    C    0.961250    0.776150    0.038750
O206    O    0.537750    0.863450    0.462250
H182    H    0.927935    0.795385    0.072065
C295    C    0.776150    0.961250    0.223850
O207    O    0.863450    0.537750    0.136550
H183    H    0.795385    0.927935    0.204615
C296    C    0.538750    0.723850    0.461250
O208    O    0.962250    0.636550    0.037750
H184    H    0.572065    0.704615    0.427935
Zr37    Zr    0.938150    0.938150    0.061850
Zr38    Zr    0.561850    0.561850    0.438150
Zr39    Zr    0.561850    0.938150    0.438150
Zr40    Zr    0.938150    0.561850    0.061850
Zr41    Zr    0.938150    0.561850    0.438150
Zr42    Zr    0.561850    0.938150    0.061850
C297    C    0.843700    0.500000    0.156300
C298    C    0.796700    0.500000    0.203300
C299    C    0.500000    0.843700    0.000000
C300    C    0.500000    0.796700    0.000000
C301    C    0.656300    0.500000    0.343700
C302    C    0.703300    0.500000    0.296700
C303    C    0.500000    0.656300    0.000000
C304    C    0.500000    0.703300    0.000000
C305    C    0.656300    0.843700    0.000000
C306    C    0.703300    0.796700    0.000000
C307    C    0.500000    0.500000    0.343700
C308    C    0.500000    0.500000    0.296700
C309    C    0.843700    0.656300    0.000000
C310    C    0.796700    0.703300    0.000000
C311    C    0.500000    0.500000    0.156300
C312    C    0.500000    0.500000    0.203300
C313    C    0.500000    0.656300    0.343700
C314    C    0.500000    0.703300    0.296700
C315    C    0.843700    0.500000    0.000000
C316    C    0.796700    0.500000    0.000000
C317    C    0.500000    0.843700    0.156300
C318    C    0.500000    0.796700    0.203300
C319    C    0.656300    0.500000    0.000000
C320    C    0.703300    0.500000    0.000000
O209    O    0.893200    0.535600    0.035600
O210    O    0.535600    0.893200    0.035600
O211    O    0.535600    0.535600    0.393200
O212    O    0.535600    0.535600    0.035600
O213    O    0.964400    0.964400    0.106800
H185    H    0.953200    0.953200    0.140395
O214    O    0.964400    0.964400    0.464400
H186    H    0.953200    0.953200    0.453200
O215    O    0.606800    0.964400    0.464400
H187    H    0.640395    0.953200    0.453200
O216    O    0.964400    0.606800    0.464400
H188    H    0.953200    0.640395    0.453200
C321    C    0.776150    0.538750    0.723850
O217    O    0.863450    0.962250    0.636550
H189    H    0.795385    0.572065    0.704615
C322    C    0.538750    0.776150    0.961250
O218    O    0.962250    0.863450    0.537750
H190    H    0.572065    0.795385    0.927935
C323    C    0.723850    0.961250    0.776150
O219    O    0.636550    0.537750    0.863450
H191    H    0.704615    0.927935    0.795385
C324    C    0.961250    0.723850    0.538750
O220    O    0.537750    0.636550    0.962250
H192    H    0.927935    0.704615    0.572065
C325    C    0.723850    0.776150    0.538750
O221    O    0.636550    0.863450    0.962250
H193    H    0.704615    0.795385    0.572065
C326    C    0.961250    0.538750    0.776150
O222    O    0.537750    0.962250    0.863450
H194    H    0.927935    0.572065    0.795385
C327    C    0.776150    0.723850    0.961250
O223    O    0.863450    0.636550    0.537750
H195    H    0.795385    0.704615    0.927935
C328    C    0.538750    0.961250    0.723850
O224    O    0.962250    0.537750    0.636550
H196    H    0.572065    0.927935    0.704615
C329    C    0.538750    0.723850    0.776150
O225    O    0.962250    0.636550    0.863450
H197    H    0.572065    0.704615    0.795385
C330    C    0.776150    0.961250    0.538750
O226    O    0.863450    0.537750    0.962250
H198    H    0.795385    0.927935    0.572065
C331    C    0.961250    0.776150    0.723850
O227    O    0.537750    0.863450    0.636550
H199    H    0.927935    0.795385    0.704615
C332    C    0.723850    0.538750    0.961250
O228    O    0.636550    0.962250    0.537750
H200    H    0.704615    0.572065    0.927935
C333    C    0.538750    0.776150    0.723850
O229    O    0.962250    0.863450    0.636550
H201    H    0.572065    0.795385    0.704615
C334    C    0.776150    0.538750    0.961250
O230    O    0.863450    0.962250    0.537750
H202    H    0.795385    0.572065    0.927935
C335    C    0.961250    0.723850    0.776150
O231    O    0.537750    0.636550    0.863450
H203    H    0.927935    0.704615    0.795385
C336    C    0.723850    0.961250    0.538750
O232    O    0.636550    0.537750    0.962250
H204    H    0.704615    0.927935    0.572065
C337    C    0.776150    0.723850    0.538750
O233    O    0.863450    0.636550    0.962250
H205    H    0.795385    0.704615    0.572065
C338    C    0.538750    0.961250    0.776150
O234    O    0.962250    0.537750    0.863450
H206    H    0.572065    0.927935    0.795385
C339    C    0.723850    0.776150    0.961250
O235    O    0.636550    0.863450    0.537750
H207    H    0.704615    0.795385    0.927935
C340    C    0.961250    0.538750    0.723850
O236    O    0.537750    0.962250    0.636550
H208    H    0.927935    0.572065    0.704615
C341    C    0.723850    0.538750    0.776150
O237    O    0.636550    0.962250    0.863450
H209    H    0.704615    0.572065    0.795385
C342    C    0.961250    0.776150    0.538750
O238    O    0.537750    0.863450    0.962250
H210    H    0.927935    0.795385    0.572065
C343    C    0.776150    0.961250    0.723850
O239    O    0.863450    0.537750    0.636550
H211    H    0.795385    0.927935    0.704615
C344    C    0.538750    0.723850    0.961250
O240    O    0.962250    0.636550    0.537750
H212    H    0.572065    0.704615    0.927935
Zr43    Zr    0.938150    0.938150    0.561850
Zr44    Zr    0.561850    0.561850    0.938150
Zr45    Zr    0.561850    0.938150    0.938150
Zr46    Zr    0.938150    0.561850    0.561850
Zr47    Zr    0.938150    0.561850    0.938150
Zr48    Zr    0.561850    0.938150    0.561850
C345    C    0.843700    0.500000    0.656300
C346    C    0.796700    0.500000    0.703300
C347    C    0.500000    0.843700    0.500000
C348    C    0.500000    0.796700    0.500000
C349    C    0.656300    0.500000    0.843700
C350    C    0.703300    0.500000    0.796700
C351    C    0.500000    0.656300    0.500000
C352    C    0.500000    0.703300    0.500000
C353    C    0.656300    0.843700    0.500000
C354    C    0.703300    0.796700    0.500000
C355    C    0.500000    0.500000    0.843700
C356    C    0.500000    0.500000    0.796700
C357    C    0.843700    0.656300    0.500000
C358    C    0.796700    0.703300    0.500000
C359    C    0.500000    0.500000    0.656300
C360    C    0.500000    0.500000    0.703300
C361    C    0.500000    0.656300    0.843700
C362    C    0.500000    0.703300    0.796700
C363    C    0.843700    0.500000    0.500000
C364    C    0.796700    0.500000    0.500000
C365    C    0.500000    0.843700    0.656300
C366    C    0.500000    0.796700    0.703300
C367    C    0.656300    0.500000    0.500000
C368    C    0.703300    0.500000    0.500000
O241    O    0.893200    0.535600    0.535600
O242    O    0.535600    0.893200    0.535600
O243    O    0.535600    0.535600    0.893200
O244    O    0.535600    0.535600    0.535600
O245    O    0.964400    0.964400    0.606800
H213    H    0.953200    0.953200    0.640395
O246    O    0.964400    0.964400    0.964400
H214    H    0.953200    0.953200    0.953200
O247    O    0.606800    0.964400    0.964400
H215    H    0.640395    0.953200    0.953200
O248    O    0.964400    0.606800    0.964400
H216    H    0.953200    0.640395    0.953200

loop_
_geom_bond_atom_site_label_1
_geom_bond_atom_site_label_2
_geom_bond_distance
C1    H1    0.05089
C1    C20    0.05230
C1    C68    0.05853
O1    Zr1    0.08211
O1    C203    0.05692
C2    H2    0.05089
C2    C19    0.05230
C2    C208    0.05853
O2    Zr2    0.08211
O2    C71    0.05692
C3    H3    0.04301
C3    C15    0.07396
C3    C26    0.04844
O3    Zr3    0.10836
O3    C73    0.04696
C4    H4    0.05089
C4    C18    0.05230
C4    C212    0.05853
O4    Zr3    0.08211
O4    C115    0.05692
C5    H5    0.04301
C5    C17    0.07396
C5    C78    0.04844
O5    Zr4    0.10836
O5    C29    0.04696
C6    H6    0.05089
C6    C16    0.05230
C6    C120    0.05853
O6    Zr4    0.08211
O6    C215    0.05692
C7    H7    0.04301
C7    C11    0.07396
C7    C34    0.04844
O7    Zr5    0.10836
O7    C217    0.04696
C8    H8    0.05089
C8    C14    0.05230
C8    C124    0.05853
O8    Zr5    0.08211
O8    C83    0.05692
C9    H9    0.04301
C9    C13    0.07396
C9    C222    0.04844
O9    Zr6    0.10836
O9    C37    0.04696
C10    H10    0.05089
C10    C12    0.05230
C10    C88    0.05853
O10    Zr6    0.08211
O10    C127    0.05692
C11    H11    0.04301
C11    C38    0.04844
O11    Zr1    0.10836
O11    C221    0.04696
C12    H12    0.05089
C12    C84    0.05853
O12    Zr1    0.08211
O12    C123    0.05692
C13    H13    0.04301
C13    C218    0.04844
O13    Zr2    0.10836
O13    C33    0.04696
C14    H14    0.05089
C14    C128    0.05853
O14    Zr2    0.08211
O14    C87    0.05692
C15    H15    0.04301
C15    C30    0.04844
O15    Zr5    0.10836
O15    C77    0.04696
C16    H16    0.05089
C16    C116    0.05853
O16    Zr5    0.08211
O16    C211    0.05692
C17    H17    0.04301
C17    C74    0.04844
O17    Zr6    0.10836
O17    C25    0.04696
C18    H18    0.05089
C18    C216    0.05853
O18    Zr6    0.08211
O18    C119    0.05692
C19    H19    0.05089
C19    C204    0.05853
O19    Zr3    0.08211
O19    C67    0.05692
C20    H20    0.05089
C20    C72    0.05853
O20    Zr4    0.08211
O20    C207    0.05692
Zr1    O25    0.05830
Zr1    O58    0.10428
Zr1    Zr16    0.12370
Zr1    O81    0.11048
Zr1    Zr23    0.17494
Zr1    Zr30    0.12370
Zr1    O146    0.11048
Zr1    Zr33    0.17494
Zr2    O23    0.05830
Zr2    O56    0.10428
Zr2    Zr15    0.12370
Zr2    O87    0.11048
Zr2    Zr24    0.17494
Zr2    Zr29    0.12370
Zr2    O152    0.11048
Zr2    Zr34    0.17494
Zr3    O27    0.05830
Zr3    Zr12    0.12370
Zr3    O54    0.11048
Zr3    Zr14    0.12370
Zr3    O83    0.11048
Zr3    O150    0.10428
Zr3    Zr31    0.17494
Zr3    Zr41    0.17494
Zr4    O21    0.05830
Zr4    Zr11    0.12370
Zr4    O60    0.11048
Zr4    Zr13    0.12370
Zr4    O85    0.11048
Zr4    O148    0.10428
Zr4    Zr32    0.17494
Zr4    Zr42    0.17494
Zr5    O28    0.05830
Zr5    Zr10    0.12370
Zr5    O53    0.11048
Zr5    O86    0.10428
Zr5    Zr19    0.17494
Zr5    Zr26    0.12370
Zr5    O147    0.11048
Zr5    Zr39    0.17494
Zr6    O22    0.05830
Zr6    Zr9    0.12370
Zr6    O59    0.11048
Zr6    O84    0.10428
Zr6    Zr20    0.17494
Zr6    Zr25    0.12370
Zr6    O149    0.11048
Zr6    Zr40    0.17494
C21    C22    0.04700
C21    O50    0.05692
C21    O122    0.05692
C22    C42    0.05853
C22    C198    0.05853
C23    C24    0.04700
C23    O32    0.05692
C23    O144    0.05692
C24    C64    0.05853
C24    C180    0.05853
C25    C26    0.06647
C25    O33    0.04696
C26    C59    0.04844
C27    C28    0.04700
C27    O64    0.05692
C27    O138    0.05692
C28    C104    0.05853
C28    C182    0.05853
C29    C30    0.06647
C29    O45    0.04696
C30    C47    0.04844
C31    C32    0.04700
C31    O78    0.05692
C31    O128    0.05692
C32    C94    0.05853
C32    C196    0.05853
C33    C34    0.06647
C33    O129    0.04696
C34    C191    0.04844
C35    C36    0.04700
C35    O38    0.05692
C35    O72    0.05692
C36    C54    0.05853
C36    C96    0.05853
C37    C38    0.06647
C37    O133    0.04696
C38    C187    0.04844
C39    C40    0.04700
C39    O44    0.05692
C39    O70    0.05692
C40    C52    0.05853
C40    C102    0.05853
O21    Zr11    0.11048
O21    Zr13    0.11048
O22    Zr9    0.11048
O22    Zr25    0.11048
O23    Zr15    0.11048
O23    Zr29    0.11048
O24    Zr8    0.10428
O24    Zr18    0.10428
O24    Zr28    0.10428
O25    H21    0.03714
O25    Zr16    0.11048
O25    Zr30    0.11048
O26    H22    0.01940
O26    Zr7    0.10428
O26    Zr17    0.10428
O26    Zr27    0.10428
O27    H23    0.03714
O27    Zr12    0.11048
O27    Zr14    0.11048
O28    H24    0.03714
O28    Zr10    0.11048
O28    Zr26    0.11048
C41    H25    0.04301
C41    C61    0.07396
C41    C66    0.04844
O29    Zr7    0.10836
O29    C153    0.04696
C42    H26    0.05089
C42    C64    0.05230
O30    Zr7    0.08211
O30    C251    0.05692
C43    H27    0.04301
C43    C63    0.07396
C43    C158    0.04844
O31    Zr8    0.10836
O31    C69    0.04696
C44    H28    0.05089
C44    C62    0.05230
C44    C256    0.05853
O32    Zr8    0.08211
C45    H29    0.04301
C45    C57    0.07396
C45    C74    0.04844
O33    Zr9    0.10836
C46    H30    0.05089
C46    C60    0.05230
C46    C260    0.05853
O34    Zr9    0.08211
O34    C163    0.05692
C47    H31    0.04301
C47    C59    0.07396
O35    Zr10    0.10836
O35    C77    0.04696
C48    H32    0.05089
C48    C58    0.05230
C48    C168    0.05853
O36    Zr10    0.08211
O36    C263    0.05692
C49    H33    0.04301
C49    C53    0.07396
C49    C82    0.04844
O37    Zr11    0.10836
O37    C265    0.04696
C50    H34    0.05089
C50    C56    0.05230
C50    C172    0.05853
O38    Zr11    0.08211
C51    H35    0.04301
C51    C55    0.07396
C51    C270    0.04844
O39    Zr12    0.10836
O39    C85    0.04696
C52    H36    0.05089
C52    C54    0.05230
O40    Zr12    0.08211
O40    C175    0.05692
C53    H37    0.04301
C53    C86    0.04844
O41    Zr7    0.10836
O41    C269    0.04696
C54    H38    0.05089
O42    Zr7    0.08211
O42    C171    0.05692
C55    H39    0.04301
C55    C266    0.04844
O43    Zr8    0.10836
O43    C81    0.04696
C56    H40    0.05089
C56    C176    0.05853
O44    Zr8    0.08211
C57    H41    0.04301
C57    C78    0.04844
O45    Zr11    0.10836
C58    H42    0.05089
C58    C164    0.05853
O46    Zr11    0.08211
O46    C259    0.05692
C59    H43    0.04301
O47    Zr12    0.10836
O47    C73    0.04696
C60    H44    0.05089
C60    C264    0.05853
O48    Zr12    0.08211
O48    C167    0.05692
C61    H45    0.04301
C61    C70    0.04844
O49    Zr9    0.10836
O49    C157    0.04696
C62    H46    0.05089
C62    C252    0.05853
O50    Zr9    0.08211
C63    H47    0.04301
C63    C154    0.04844
O51    Zr10    0.10836
O51    C65    0.04696
C64    H48    0.05089
O52    Zr10    0.08211
O52    C255    0.05692
Zr7    O57    0.05830
Zr7    Zr17    0.17494
Zr7    Zr22    0.12370
Zr7    O113    0.11048
Zr7    Zr27    0.17494
Zr7    Zr36    0.12370
Zr7    O178    0.11048
Zr8    O55    0.05830
Zr8    Zr18    0.17494
Zr8    Zr21    0.12370
Zr8    O119    0.11048
Zr8    Zr28    0.17494
Zr8    Zr35    0.12370
Zr8    O184    0.11048
Zr9    O59    0.05830
Zr9    Zr20    0.12370
Zr9    O115    0.11048
Zr9    Zr25    0.17494
Zr9    O182    0.10428
Zr9    Zr47    0.17494
Zr10    O53    0.05830
Zr10    Zr19    0.12370
Zr10    O117    0.11048
Zr10    Zr26    0.17494
Zr10    O180    0.10428
Zr10    Zr48    0.17494
Zr11    O60    0.05830
Zr11    Zr13    0.17494
Zr11    O118    0.10428
Zr11    Zr32    0.12370
Zr11    O179    0.11048
Zr11    Zr45    0.17494
Zr12    O54    0.05830
Zr12    Zr14    0.17494
Zr12    O116    0.10428
Zr12    Zr31    0.12370
Zr12    O181    0.11048
Zr12    Zr46    0.17494
C65    C66    0.06647
C65    O89    0.04696
C66    C151    0.04844
C67    C68    0.04700
C67    O154    0.05692
C68    C246    0.05853
C69    C70    0.06647
C69    O109    0.04696
C70    C131    0.04844
C71    C72    0.04700
C71    O176    0.05692
C72    C228    0.05853
C73    C74    0.06647
C75    C76    0.04700
C75    O94    0.05692
C75    O170    0.05692
C76    C146    0.05853
C76    C230    0.05853
C77    C78    0.06647
C79    C80    0.04700
C79    O108    0.05692
C79    O160    0.05692
C80    C136    0.05853
C80    C244    0.05853
C81    C82    0.06647
C81    O161    0.04696
C82    C239    0.04844
C83    C84    0.04700
C83    O102    0.05692
C84    C138    0.05853
C85    C86    0.06647
C85    O165    0.04696
C86    C235    0.04844
C87    C88    0.04700
C87    O100    0.05692
C88    C144    0.05853
O53    Zr19    0.11048
O54    Zr31    0.11048
O55    Zr21    0.11048
O55    Zr35    0.11048
O56    Zr24    0.10428
O56    Zr34    0.10428
O57    H49    0.03714
O57    Zr22    0.11048
O57    Zr36    0.11048
O58    H50    0.01940
O58    Zr23    0.10428
O58    Zr33    0.10428
O59    H51    0.03714
O59    Zr20    0.11048
O60    H52    0.03714
O60    Zr32    0.11048
C89    H53    0.05089
C89    C108    0.05230
C89    C156    0.05853
O61    Zr13    0.08211
O61    C299    0.05692
C90    H54    0.05089
C90    C107    0.05230
C90    C304    0.05853
O62    Zr14    0.08211
O62    C159    0.05692
C91    H55    0.04301
C91    C103    0.07396
C91    C114    0.04844
O63    Zr15    0.10836
O63    C161    0.04696
C92    H56    0.05089
C92    C106    0.05230
C92    C308    0.05853
O64    Zr15    0.08211
C93    H57    0.04301
C93    C105    0.07396
C93    C166    0.04844
O65    Zr16    0.10836
O65    C117    0.04696
C94    H58    0.05089
C94    C104    0.05230
O66    Zr16    0.08211
O66    C311    0.05692
C95    H59    0.04301
C95    C99    0.07396
C95    C122    0.04844
O67    Zr17    0.10836
O67    C313    0.04696
C96    H60    0.05089
C96    C102    0.05230
O68    Zr17    0.08211
O68    C171    0.05692
C97    H61    0.04301
C97    C101    0.07396
C97    C318    0.04844
O69    Zr18    0.10836
O69    C125    0.04696
C98    H62    0.05089
C98    C100    0.05230
C98    C176    0.05853
O70    Zr18    0.08211
C99    H63    0.04301
C99    C126    0.04844
O71    Zr13    0.10836
O71    C317    0.04696
C100    H64    0.05089
C100    C172    0.05853
O72    Zr13    0.08211
C101    H65    0.04301
C101    C314    0.04844
O73    Zr14    0.10836
O73    C121    0.04696
C102    H66    0.05089
O74    Zr14    0.08211
O74    C175    0.05692
C103    H67    0.04301
C103    C118    0.04844
O75    Zr17    0.10836
O75    C165    0.04696
C104    H68    0.05089
O76    Zr17    0.08211
O76    C307    0.05692
C105    H69    0.04301
C105    C162    0.04844
O77    Zr18    0.10836
O77    C113    0.04696
C106    H70    0.05089
C106    C312    0.05853
O78    Zr18    0.08211
C107    H71    0.05089
C107    C300    0.05853
O79    Zr15    0.08211
O79    C155    0.05692
C108    H72    0.05089
C108    C160    0.05853
O80    Zr16    0.08211
O80    C303    0.05692
Zr13    O85    0.05830
Zr13    O118    0.10428
Zr13    Zr42    0.12370
Zr13    O210    0.11048
Zr13    Zr45    0.17494
Zr14    O83    0.05830
Zr14    O116    0.10428
Zr14    Zr41    0.12370
Zr14    O216    0.11048
Zr14    Zr46    0.17494
Zr15    O87    0.05830
Zr15    Zr24    0.12370
Zr15    O114    0.11048
Zr15    Zr29    0.17494
Zr15    O214    0.10428
Zr15    Zr43    0.17494
Zr16    O81    0.05830
Zr16    Zr23    0.12370
Zr16    O120    0.11048
Zr16    Zr30    0.17494
Zr16    O212    0.10428
Zr16    Zr44    0.17494
Zr17    O88    0.05830
Zr17    Zr22    0.12370
Zr17    O113    0.11048
Zr17    Zr27    0.17494
Zr17    Zr38    0.12370
Zr17    O211    0.11048
Zr18    O82    0.05830
Zr18    Zr21    0.12370
Zr18    O119    0.11048
Zr18    Zr28    0.17494
Zr18    Zr37    0.12370
Zr18    O213    0.11048
C109    C110    0.04700
C109    O110    0.05692
C109    O186    0.05692
C110    C130    0.05853
C110    C294    0.05853
C111    C112    0.04700
C111    O92    0.05692
C111    O208    0.05692
C112    C152    0.05853
C112    C276    0.05853
C113    C114    0.06647
C113    O93    0.04696
C114    C147    0.04844
C115    C116    0.04700
C115    O202    0.05692
C116    C278    0.05853
C117    C118    0.06647
C117    O105    0.04696
C118    C135    0.04844
C119    C120    0.04700
C119    O192    0.05692
C120    C292    0.05853
C121    C122    0.06647
C121    O193    0.04696
C122    C287    0.04844
C123    C124    0.04700
C123    O98    0.05692
C124    C142    0.05853
C125    C126    0.06647
C125    O197    0.04696
C126    C283    0.04844
C127    C128    0.04700
C127    O104    0.05692
C128    C140    0.05853
O81    Zr23    0.11048
O82    Zr21    0.11048
O82    Zr37    0.11048
O83    Zr41    0.11048
O84    Zr20    0.10428
O84    Zr40    0.10428
O85    H73    0.03714
O85    Zr42    0.11048
O86    H74    0.01940
O86    Zr19    0.10428
O86    Zr39    0.10428
O87    H75    0.03714
O87    Zr24    0.11048
O88    H76    0.03714
O88    Zr22    0.11048
O88    Zr38    0.11048
C129    H77    0.04301
C129    C149    0.07396
C129    C154    0.04844
O89    Zr19    0.10836
C130    H78    0.05089
C130    C152    0.05230
O90    Zr19    0.08211
O90    C347    0.05692
C131    H79    0.04301
C131    C151    0.07396
O91    Zr20    0.10836
O91    C157    0.04696
C132    H80    0.05089
C132    C150    0.05230
C132    C352    0.05853
O92    Zr20    0.08211
C133    H81    0.04301
C133    C145    0.07396
C133    C162    0.04844
O93    Zr21    0.10836
C134    H82    0.05089
C134    C148    0.05230
C134    C356    0.05853
O94    Zr21    0.08211
C135    H83    0.04301
C135    C147    0.07396
O95    Zr22    0.10836
O95    C165    0.04696
C136    H84    0.05089
C136    C146    0.05230
O96    Zr22    0.08211
O96    C359    0.05692
C137    H85    0.04301
C137    C141    0.07396
C137    C170    0.04844
O97    Zr23    0.10836
O97    C361    0.04696
C138    H86    0.05089
C138    C144    0.05230
O98    Zr23    0.08211
C139    H87    0.04301
C139    C143    0.07396
C139    C366    0.04844
O99    Zr24    0.10836
O99    C173    0.04696
C140    H88    0.05089
C140    C142    0.05230
O100    Zr24    0.08211
C141    H89    0.04301
C141    C174    0.04844
O101    Zr19    0.10836
O101    C365    0.04696
C142    H90    0.05089
O102    Zr19    0.08211
C143    H91    0.04301
C143    C362    0.04844
O103    Zr20    0.10836
O103    C169    0.04696
C144    H92    0.05089
O104    Zr20    0.08211
C145    H93    0.04301
C145    C166    0.04844
O105    Zr23    0.10836
C146    H94    0.05089
O106    Zr23    0.08211
O106    C355    0.05692
C147    H95    0.04301
O107    Zr24    0.10836
O107    C161    0.04696
C148    H96    0.05089
C148    C360    0.05853
O108    Zr24    0.08211
C149    H97    0.04301
C149    C158    0.04844
O109    Zr21    0.10836
C150    H98    0.05089
C150    C348    0.05853
O110    Zr21    0.08211
C151    H99    0.04301
O111    Zr22    0.10836
O111    C153    0.04696
C152    H100    0.05089
O112    Zr22    0.08211
O112    C351    0.05692
Zr19    O117    0.05830
Zr19    Zr39    0.17494
Zr19    Zr48    0.12370
Zr19    O242    0.11048
Zr20    O115    0.05830
Zr20    Zr40    0.17494
Zr20    Zr47    0.12370
Zr20    O248    0.11048
Zr21    O119    0.05830
Zr21    Zr35    0.17494
Zr21    Zr37    0.17494
Zr21    O246    0.10428
Zr22    O113    0.05830
Zr22    Zr36    0.17494
Zr22    Zr38    0.17494
Zr22    O244    0.10428
Zr23    O120    0.05830
Zr23    Zr33    0.17494
Zr23    Zr44    0.12370
Zr23    O243    0.11048
Zr24    O114    0.05830
Zr24    Zr34    0.17494
Zr24    Zr43    0.12370
Zr24    O245    0.11048
C153    C154    0.06647
C155    C156    0.04700
C155    O218    0.05692
C156    C342    0.05853
C157    C158    0.06647
C159    C160    0.04700
C159    O240    0.05692
C160    C324    0.05853
C161    C162    0.06647
C163    C164    0.04700
C163    O234    0.05692
C164    C326    0.05853
C165    C166    0.06647
C167    C168    0.04700
C167    O224    0.05692
C168    C340    0.05853
C169    C170    0.06647
C169    O225    0.04696
C170    C335    0.04844
C171    C172    0.04700
C173    C174    0.06647
C173    O229    0.04696
C174    C331    0.04844
C175    C176    0.04700
O114    Zr43    0.11048
O115    Zr47    0.11048
O116    Zr46    0.10428
O117    H101    0.03714
O117    Zr48    0.11048
O118    H102    0.01940
O118    Zr45    0.10428
O119    H103    0.03714
O120    H104    0.03714
O120    Zr44    0.11048
C177    H105    0.04301
C177    C197    0.07396
C177    C202    0.04844
O121    Zr25    0.10836
O121    C297    0.04696
C178    H106    0.05089
C178    C200    0.05230
C178    C252    0.05853
O122    Zr25    0.08211
C179    H107    0.04301
C179    C199    0.07396
C179    C302    0.04844
O123    Zr26    0.10836
O123    C205    0.04696
C180    H108    0.05089
C180    C198    0.05230
O124    Zr26    0.08211
O124    C255    0.05692
C181    H109    0.04301
C181    C193    0.07396
C181    C210    0.04844
O125    Zr27    0.10836
O125    C257    0.04696
C182    H110    0.05089
C182    C196    0.05230
O126    Zr27    0.08211
O126    C307    0.05692
C183    H111    0.04301
C183    C195    0.07396
C183    C262    0.04844
O127    Zr28    0.10836
O127    C213    0.04696
C184    H112    0.05089
C184    C194    0.05230
C184    C312    0.05853
O128    Zr28    0.08211
C185    H113    0.04301
C185    C189    0.07396
C185    C218    0.04844
O129    Zr29    0.10836
C186    H114    0.05089
C186    C192    0.05230
C186    C316    0.05853
O130    Zr29    0.08211
O130    C267    0.05692
C187    H115    0.04301
C187    C191    0.07396
O131    Zr30    0.10836
O131    C221    0.04696
C188    H116    0.05089
C188    C190    0.05230
C188    C272    0.05853
O132    Zr30    0.08211
O132    C319    0.05692
C189    H117    0.04301
C189    C222    0.04844
O133    Zr25    0.10836
C190    H118    0.05089
C190    C268    0.05853
O134    Zr25    0.08211
O134    C315    0.05692
C191    H119    0.04301
O135    Zr26    0.10836
O135    C217    0.04696
C192    H120    0.05089
C192    C320    0.05853
O136    Zr26    0.08211
O136    C271    0.05692
C193    H121    0.04301
C193    C214    0.04844
O137    Zr29    0.10836
O137    C261    0.04696
C194    H122    0.05089
C194    C308    0.05853
O138    Zr29    0.08211
C195    H123    0.04301
C195    C258    0.04844
O139    Zr30    0.10836
O139    C209    0.04696
C196    H124    0.05089
O140    Zr30    0.08211
O140    C311    0.05692
C197    H125    0.04301
C197    C206    0.04844
O141    Zr27    0.10836
O141    C301    0.04696
C198    H126    0.05089
O142    Zr27    0.08211
O142    C251    0.05692
C199    H127    0.04301
C199    C298    0.04844
O143    Zr28    0.10836
O143    C201    0.04696
C200    H128    0.05089
C200    C256    0.05853
O144    Zr28    0.08211
Zr25    O149    0.05830
Zr25    O182    0.10428
Zr25    Zr40    0.12370
Zr25    O209    0.11048
Zr25    Zr47    0.17494
Zr26    O147    0.05830
Zr26    O180    0.10428
Zr26    Zr39    0.12370
Zr26    O215    0.11048
Zr26    Zr48    0.17494
Zr27    O151    0.05830
Zr27    Zr36    0.12370
Zr27    O178    0.11048
Zr27    Zr38    0.12370
Zr27    O211    0.11048
Zr28    O145    0.05830
Zr28    Zr35    0.12370
Zr28    O184    0.11048
Zr28    Zr37    0.12370
Zr28    O213    0.11048
Zr29    O152    0.05830
Zr29    Zr34    0.12370
Zr29    O177    0.11048
Zr29    O214    0.10428
Zr29    Zr43    0.17494
Zr30    O146    0.05830
Zr30    Zr33    0.12370
Zr30    O183    0.11048
Zr30    O212    0.10428
Zr30    Zr44    0.17494
C201    C202    0.06647
C201    O185    0.04696
C202    C295    0.04844
C203    C204    0.04700
C203    O174    0.05692
C204    C226    0.05853
C205    C206    0.06647
C205    O205    0.04696
C206    C275    0.04844
C207    C208    0.04700
C207    O156    0.05692
C208    C248    0.05853
C209    C210    0.06647
C209    O157    0.04696
C210    C243    0.04844
C211    C212    0.04700
C211    O190    0.05692
C212    C290    0.05853
C213    C214    0.06647
C213    O169    0.04696
C214    C231    0.04844
C215    C216    0.04700
C215    O204    0.05692
C216    C280    0.05853
C217    C218    0.06647
C219    C220    0.04700
C219    O162    0.05692
C219    O198    0.05692
C220    C238    0.05853
C220    C282    0.05853
C221    C222    0.06647
C223    C224    0.04700
C223    O168    0.05692
C223    O196    0.05692
C224    C236    0.05853
C224    C288    0.05853
O145    Zr35    0.11048
O145    Zr37    0.11048
O146    Zr33    0.11048
O147    Zr39    0.11048
O148    Zr32    0.10428
O148    Zr42    0.10428
O149    H129    0.03714
O149    Zr40    0.11048
O150    H130    0.01940
O150    Zr31    0.10428
O150    Zr41    0.10428
O151    H131    0.03714
O151    Zr36    0.11048
O151    Zr38    0.11048
O152    H132    0.03714
O152    Zr34    0.11048
C225    H133    0.04301
C225    C245    0.07396
C225    C250    0.04844
O153    Zr31    0.10836
O153    C345    0.04696
C226    H134    0.05089
C226    C248    0.05230
O154    Zr31    0.08211
C227    H135    0.04301
C227    C247    0.07396
C227    C350    0.04844
O155    Zr32    0.10836
O155    C253    0.04696
C228    H136    0.05089
C228    C246    0.05230
O156    Zr32    0.08211
C229    H137    0.04301
C229    C241    0.07396
C229    C258    0.04844
O157    Zr33    0.10836
C230    H138    0.05089
C230    C244    0.05230
O158    Zr33    0.08211
O158    C355    0.05692
C231    H139    0.04301
C231    C243    0.07396
O159    Zr34    0.10836
O159    C261    0.04696
C232    H140    0.05089
C232    C242    0.05230
C232    C360    0.05853
O160    Zr34    0.08211
C233    H141    0.04301
C233    C237    0.07396
C233    C266    0.04844
O161    Zr35    0.10836
C234    H142    0.05089
C234    C240    0.05230
C234    C364    0.05853
O162    Zr35    0.08211
C235    H143    0.04301
C235    C239    0.07396
O163    Zr36    0.10836
O163    C269    0.04696
C236    H144    0.05089
C236    C238    0.05230
O164    Zr36    0.08211
O164    C367    0.05692
C237    H145    0.04301
C237    C270    0.04844
O165    Zr31    0.10836
C238    H146    0.05089
O166    Zr31    0.08211
O166    C363    0.05692
C239    H147    0.04301
O167    Zr32    0.10836
O167    C265    0.04696
C240    H148    0.05089
C240    C368    0.05853
O168    Zr32    0.08211
C241    H149    0.04301
C241    C262    0.04844
O169    Zr35    0.10836
C242    H150    0.05089
C242    C356    0.05853
O170    Zr35    0.08211
C243    H151    0.04301
O171    Zr36    0.10836
O171    C257    0.04696
C244    H152    0.05089
O172    Zr36    0.08211
O172    C359    0.05692
C245    H153    0.04301
C245    C254    0.04844
O173    Zr33    0.10836
O173    C349    0.04696
C246    H154    0.05089
O174    Zr33    0.08211
C247    H155    0.04301
C247    C346    0.04844
O175    Zr34    0.10836
O175    C249    0.04696
C248    H156    0.05089
O176    Zr34    0.08211
Zr31    O181    0.05830
Zr31    Zr41    0.17494
Zr31    Zr46    0.12370
Zr31    O241    0.11048
Zr32    O179    0.05830
Zr32    Zr42    0.17494
Zr32    Zr45    0.12370
Zr32    O247    0.11048
Zr33    O183    0.05830
Zr33    Zr44    0.12370
Zr33    O243    0.11048
Zr34    O177    0.05830
Zr34    Zr43    0.12370
Zr34    O245    0.11048
Zr35    O184    0.05830
Zr35    Zr37    0.17494
Zr35    O246    0.10428
Zr36    O178    0.05830
Zr36    Zr38    0.17494
Zr36    O244    0.10428
C249    C250    0.06647
C249    O217    0.04696
C250    C343    0.04844
C251    C252    0.04700
C253    C254    0.06647
C253    O237    0.04696
C254    C323    0.04844
C255    C256    0.04700
C257    C258    0.06647
C259    C260    0.04700
C259    O222    0.05692
C260    C338    0.05853
C261    C262    0.06647
C263    C264    0.04700
C263    O236    0.05692
C264    C328    0.05853
C265    C266    0.06647
C267    C268    0.04700
C267    O230    0.05692
C268    C330    0.05853
C269    C270    0.06647
C271    C272    0.04700
C271    O228    0.05692
C272    C336    0.05853
O177    Zr43    0.11048
O179    Zr45    0.11048
O180    Zr48    0.10428
O181    H157    0.03714
O181    Zr46    0.11048
O182    H158    0.01940
O182    Zr47    0.10428
O183    H159    0.03714
O183    Zr44    0.11048
O184    H160    0.03714
C273    H161    0.04301
C273    C293    0.07396
C273    C298    0.04844
O185    Zr37    0.10836
C274    H162    0.05089
C274    C296    0.05230
C274    C348    0.05853
O186    Zr37    0.08211
C275    H163    0.04301
C275    C295    0.07396
O187    Zr38    0.10836
O187    C301    0.04696
C276    H164    0.05089
C276    C294    0.05230
O188    Zr38    0.08211
O188    C351    0.05692
C277    H165    0.04301
C277    C289    0.07396
C277    C306    0.04844
O189    Zr39    0.10836
O189    C353    0.04696
C278    H166    0.05089
C278    C292    0.05230
O190    Zr39    0.08211
C279    H167    0.04301
C279    C291    0.07396
C279    C358    0.04844
O191    Zr40    0.10836
O191    C309    0.04696
C280    H168    0.05089
C280    C290    0.05230
O192    Zr40    0.08211
C281    H169    0.04301
C281    C285    0.07396
C281    C314    0.04844
O193    Zr41    0.10836
C282    H170    0.05089
C282    C288    0.05230
O194    Zr41    0.08211
O194    C363    0.05692
C283    H171    0.04301
C283    C287    0.07396
O195    Zr42    0.10836
O195    C317    0.04696
C284    H172    0.05089
C284    C286    0.05230
C284    C368    0.05853
O196    Zr42    0.08211
C285    H173    0.04301
C285    C318    0.04844
O197    Zr37    0.10836
C286    H174    0.05089
C286    C364    0.05853
O198    Zr37    0.08211
C287    H175    0.04301
O199    Zr38    0.10836
O199    C313    0.04696
C288    H176    0.05089
O200    Zr38    0.08211
O200    C367    0.05692
C289    H177    0.04301
C289    C310    0.04844
O201    Zr41    0.10836
O201    C357    0.04696
C290    H178    0.05089
O202    Zr41    0.08211
C291    H179    0.04301
C291    C354    0.04844
O203    Zr42    0.10836
O203    C305    0.04696
C292    H180    0.05089
O204    Zr42    0.08211
C293    H181    0.04301
C293    C302    0.04844
O205    Zr39    0.10836
C294    H182    0.05089
O206    Zr39    0.08211
O206    C347    0.05692
C295    H183    0.04301
O207    Zr40    0.10836
O207    C297    0.04696
C296    H184    0.05089
C296    C352    0.05853
O208    Zr40    0.08211
Zr37    O213    0.05830
Zr37    O246    0.10428
Zr38    O211    0.05830
Zr38    O244    0.10428
Zr39    O215    0.05830
Zr39    Zr48    0.12370
Zr39    O242    0.11048
Zr40    O209    0.05830
Zr40    Zr47    0.12370
Zr40    O248    0.11048
Zr41    O216    0.05830
Zr41    Zr46    0.12370
Zr41    O241    0.11048
Zr42    O210    0.05830
Zr42    Zr45    0.12370
Zr42    O247    0.11048
C297    C298    0.06647
C299    C300    0.04700
C299    O238    0.05692
C300    C322    0.05853
C301    C302    0.06647
C303    C304    0.04700
C303    O220    0.05692
C304    C344    0.05853
C305    C306    0.06647
C305    O221    0.04696
C306    C339    0.04844
C307    C308    0.04700
C309    C310    0.06647
C309    O233    0.04696
C310    C327    0.04844
C311    C312    0.04700
C313    C314    0.06647
C315    C316    0.04700
C315    O226    0.05692
C316    C334    0.05853
C317    C318    0.06647
C319    C320    0.04700
C319    O232    0.05692
C320    C332    0.05853
O209    Zr47    0.11048
O210    Zr45    0.11048
O212    Zr44    0.10428
O213    H185    0.03714
O214    H186    0.01940
O214    Zr43    0.10428
O215    H187    0.03714
O215    Zr48    0.11048
O216    H188    0.03714
O216    Zr46    0.11048
C321    H189    0.04301
C321    C341    0.07396
C321    C346    0.04844
O217    Zr43    0.10836
C322    H190    0.05089
C322    C344    0.05230
O218    Zr43    0.08211
C323    H191    0.04301
C323    C343    0.07396
O219    Zr44    0.10836
O219    C349    0.04696
C324    H192    0.05089
C324    C342    0.05230
O220    Zr44    0.08211
C325    H193    0.04301
C325    C337    0.07396
C325    C354    0.04844
O221    Zr45    0.10836
C326    H194    0.05089
C326    C340    0.05230
O222    Zr45    0.08211
C327    H195    0.04301
C327    C339    0.07396
O223    Zr46    0.10836
O223    C357    0.04696
C328    H196    0.05089
C328    C338    0.05230
O224    Zr46    0.08211
C329    H197    0.04301
C329    C333    0.07396
C329    C362    0.04844
O225    Zr47    0.10836
C330    H198    0.05089
C330    C336    0.05230
O226    Zr47    0.08211
C331    H199    0.04301
C331    C335    0.07396
O227    Zr48    0.10836
O227    C365    0.04696
C332    H200    0.05089
C332    C334    0.05230
O228    Zr48    0.08211
C333    H201    0.04301
C333    C366    0.04844
O229    Zr43    0.10836
C334    H202    0.05089
O230    Zr43    0.08211
C335    H203    0.04301
O231    Zr44    0.10836
O231    C361    0.04696
C336    H204    0.05089
O232    Zr44    0.08211
C337    H205    0.04301
C337    C358    0.04844
O233    Zr47    0.10836
C338    H206    0.05089
O234    Zr47    0.08211
C339    H207    0.04301
O235    Zr48    0.10836
O235    C353    0.04696
C340    H208    0.05089
O236    Zr48    0.08211
C341    H209    0.04301
C341    C350    0.04844
O237    Zr45    0.10836
C342    H210    0.05089
O238    Zr45    0.08211
C343    H211    0.04301
O239    Zr46    0.10836
O239    C345    0.04696
C344    H212    0.05089
O240    Zr46    0.08211
Zr43    O245    0.05830
Zr44    O243    0.05830
Zr45    O247    0.05830
Zr46    O241    0.05830
Zr47    O248    0.05830
Zr48    O242    0.05830
C345    C346    0.06647
C347    C348    0.04700
C349    C350    0.06647
C351    C352    0.04700
C353    C354    0.06647
C355    C356    0.04700
C357    C358    0.06647
C359    C360    0.04700
C361    C362    0.06647
C363    C364    0.04700
C365    C366    0.06647
C367    C368    0.04700
O245    H213    0.03714
O246    H214    0.01940
O247    H215    0.03714
O248    H216    0.03714
